version 3
run Lognormal-79-20260105-17:01:28-25149
attr configname Lognormal
attr datetime 20260105-17:01:28
attr datetimef 20260105-170128
attr experiment Lognormal
attr inifile omnetpp.ini
attr iterationvars "$N=150, $p=0.3"
attr iterationvarsd N=150/p=0.3
attr iterationvarsf N=150,p=0.3-
attr measurement "$N=150, $p=0.3"
attr network progetto.DatabaseNetwork
attr processid 25149
attr repetition 4
attr replication #4
attr resultdir results
attr runnumber 79
attr seedset 4
itervar N 150
itervar p 0.3
config description "Lognormal distribution (hotspots) - varia N e p"
config *.user[*].tableDistribution "\"lognormal\""
config *.user[*].lognormalM 1.5
config *.user[*].lognormalS 1.0
config *.numUsers 150
config *.user[*].readProbability 0.3
config network progetto.DatabaseNetwork
config sim-time-limit 10000s
config cpu-time-limit 3600s
config repeat 5
config seed-set 4
config output-vector-file "results/Lognormal-$N=150, $p=0.3-4.vec"
config output-scalar-file "results/Lognormal-$N=150, $p=0.3-4.sca"
config result-dir results
config **.vector-recording true
config **.scalar-recording true
config *.numTables 20
config *.user[*].lambda 0.05
config *.user[*].serviceTime 0.1s

par DatabaseNetwork.user[0] typename "\"progetto.User\""
par DatabaseNetwork.user[0] userId 0
par DatabaseNetwork.user[0] lambda 0.05
par DatabaseNetwork.user[0] readProbability 0.3
par DatabaseNetwork.user[0] numTables 20
par DatabaseNetwork.user[0] tableDistribution "\"lognormal\""
par DatabaseNetwork.user[0] serviceTime 0.1s
attr unit s
par DatabaseNetwork.user[0] lognormalM 1.5
par DatabaseNetwork.user[0] lognormalS 1
scalar DatabaseNetwork.user[0] totalAccesses 509
scalar DatabaseNetwork.user[0] totalReads 154
scalar DatabaseNetwork.user[0] totalWrites 355
scalar DatabaseNetwork.user[0] averageWaitTime 0.10390607786369
scalar DatabaseNetwork.user[0] accessesPerSecond 0.0509
par DatabaseNetwork.user[1] typename "\"progetto.User\""
par DatabaseNetwork.user[1] userId 1
par DatabaseNetwork.user[1] lambda 0.05
par DatabaseNetwork.user[1] readProbability 0.3
par DatabaseNetwork.user[1] numTables 20
par DatabaseNetwork.user[1] tableDistribution "\"lognormal\""
par DatabaseNetwork.user[1] serviceTime 0.1s
attr unit s
par DatabaseNetwork.user[1] lognormalM 1.5
par DatabaseNetwork.user[1] lognormalS 1
scalar DatabaseNetwork.user[1] totalAccesses 504
scalar DatabaseNetwork.user[1] totalReads 144
scalar DatabaseNetwork.user[1] totalWrites 360
scalar DatabaseNetwork.user[1] averageWaitTime 0.10282754178271
scalar DatabaseNetwork.user[1] accessesPerSecond 0.0504
par DatabaseNetwork.user[2] typename "\"progetto.User\""
par DatabaseNetwork.user[2] userId 2
par DatabaseNetwork.user[2] lambda 0.05
par DatabaseNetwork.user[2] readProbability 0.3
par DatabaseNetwork.user[2] numTables 20
par DatabaseNetwork.user[2] tableDistribution "\"lognormal\""
par DatabaseNetwork.user[2] serviceTime 0.1s
attr unit s
par DatabaseNetwork.user[2] lognormalM 1.5
par DatabaseNetwork.user[2] lognormalS 1
scalar DatabaseNetwork.user[2] totalAccesses 504
scalar DatabaseNetwork.user[2] totalReads 152
scalar DatabaseNetwork.user[2] totalWrites 352
scalar DatabaseNetwork.user[2] averageWaitTime 0.10288102080575
scalar DatabaseNetwork.user[2] accessesPerSecond 0.0504
par DatabaseNetwork.user[3] typename "\"progetto.User\""
par DatabaseNetwork.user[3] userId 3
par DatabaseNetwork.user[3] lambda 0.05
par DatabaseNetwork.user[3] readProbability 0.3
par DatabaseNetwork.user[3] numTables 20
par DatabaseNetwork.user[3] tableDistribution "\"lognormal\""
par DatabaseNetwork.user[3] serviceTime 0.1s
attr unit s
par DatabaseNetwork.user[3] lognormalM 1.5
par DatabaseNetwork.user[3] lognormalS 1
scalar DatabaseNetwork.user[3] totalAccesses 518
scalar DatabaseNetwork.user[3] totalReads 165
scalar DatabaseNetwork.user[3] totalWrites 353
scalar DatabaseNetwork.user[3] averageWaitTime 0.10202535208028
scalar DatabaseNetwork.user[3] accessesPerSecond 0.0518
par DatabaseNetwork.user[4] typename "\"progetto.User\""
par DatabaseNetwork.user[4] userId 4
par DatabaseNetwork.user[4] lambda 0.05
par DatabaseNetwork.user[4] readProbability 0.3
par DatabaseNetwork.user[4] numTables 20
par DatabaseNetwork.user[4] tableDistribution "\"lognormal\""
par DatabaseNetwork.user[4] serviceTime 0.1s
attr unit s
par DatabaseNetwork.user[4] lognormalM 1.5
par DatabaseNetwork.user[4] lognormalS 1
scalar DatabaseNetwork.user[4] totalAccesses 445
scalar DatabaseNetwork.user[4] totalReads 144
scalar DatabaseNetwork.user[4] totalWrites 301
scalar DatabaseNetwork.user[4] averageWaitTime 0.10223233681226
scalar DatabaseNetwork.user[4] accessesPerSecond 0.0445
par DatabaseNetwork.user[5] typename "\"progetto.User\""
par DatabaseNetwork.user[5] userId 5
par DatabaseNetwork.user[5] lambda 0.05
par DatabaseNetwork.user[5] readProbability 0.3
par DatabaseNetwork.user[5] numTables 20
par DatabaseNetwork.user[5] tableDistribution "\"lognormal\""
par DatabaseNetwork.user[5] serviceTime 0.1s
attr unit s
par DatabaseNetwork.user[5] lognormalM 1.5
par DatabaseNetwork.user[5] lognormalS 1
scalar DatabaseNetwork.user[5] totalAccesses 509
scalar DatabaseNetwork.user[5] totalReads 155
scalar DatabaseNetwork.user[5] totalWrites 354
scalar DatabaseNetwork.user[5] averageWaitTime 0.10312043771363
scalar DatabaseNetwork.user[5] accessesPerSecond 0.0509
par DatabaseNetwork.user[6] typename "\"progetto.User\""
par DatabaseNetwork.user[6] userId 6
par DatabaseNetwork.user[6] lambda 0.05
par DatabaseNetwork.user[6] readProbability 0.3
par DatabaseNetwork.user[6] numTables 20
par DatabaseNetwork.user[6] tableDistribution "\"lognormal\""
par DatabaseNetwork.user[6] serviceTime 0.1s
attr unit s
par DatabaseNetwork.user[6] lognormalM 1.5
par DatabaseNetwork.user[6] lognormalS 1
scalar DatabaseNetwork.user[6] totalAccesses 479
scalar DatabaseNetwork.user[6] totalReads 155
scalar DatabaseNetwork.user[6] totalWrites 324
scalar DatabaseNetwork.user[6] averageWaitTime 0.10377015587313
scalar DatabaseNetwork.user[6] accessesPerSecond 0.0479
par DatabaseNetwork.user[7] typename "\"progetto.User\""
par DatabaseNetwork.user[7] userId 7
par DatabaseNetwork.user[7] lambda 0.05
par DatabaseNetwork.user[7] readProbability 0.3
par DatabaseNetwork.user[7] numTables 20
par DatabaseNetwork.user[7] tableDistribution "\"lognormal\""
par DatabaseNetwork.user[7] serviceTime 0.1s
attr unit s
par DatabaseNetwork.user[7] lognormalM 1.5
par DatabaseNetwork.user[7] lognormalS 1
scalar DatabaseNetwork.user[7] totalAccesses 531
scalar DatabaseNetwork.user[7] totalReads 160
scalar DatabaseNetwork.user[7] totalWrites 371
scalar DatabaseNetwork.user[7] averageWaitTime 0.10243117962373
scalar DatabaseNetwork.user[7] accessesPerSecond 0.0531
par DatabaseNetwork.user[8] typename "\"progetto.User\""
par DatabaseNetwork.user[8] userId 8
par DatabaseNetwork.user[8] lambda 0.05
par DatabaseNetwork.user[8] readProbability 0.3
par DatabaseNetwork.user[8] numTables 20
par DatabaseNetwork.user[8] tableDistribution "\"lognormal\""
par DatabaseNetwork.user[8] serviceTime 0.1s
attr unit s
par DatabaseNetwork.user[8] lognormalM 1.5
par DatabaseNetwork.user[8] lognormalS 1
scalar DatabaseNetwork.user[8] totalAccesses 504
scalar DatabaseNetwork.user[8] totalReads 141
scalar DatabaseNetwork.user[8] totalWrites 363
scalar DatabaseNetwork.user[8] averageWaitTime 0.10447537054658
scalar DatabaseNetwork.user[8] accessesPerSecond 0.0504
par DatabaseNetwork.user[9] typename "\"progetto.User\""
par DatabaseNetwork.user[9] userId 9
par DatabaseNetwork.user[9] lambda 0.05
par DatabaseNetwork.user[9] readProbability 0.3
par DatabaseNetwork.user[9] numTables 20
par DatabaseNetwork.user[9] tableDistribution "\"lognormal\""
par DatabaseNetwork.user[9] serviceTime 0.1s
attr unit s
par DatabaseNetwork.user[9] lognormalM 1.5
par DatabaseNetwork.user[9] lognormalS 1
scalar DatabaseNetwork.user[9] totalAccesses 522
scalar DatabaseNetwork.user[9] totalReads 154
scalar DatabaseNetwork.user[9] totalWrites 368
scalar DatabaseNetwork.user[9] averageWaitTime 0.10345449642465
scalar DatabaseNetwork.user[9] accessesPerSecond 0.0522
par DatabaseNetwork.user[10] typename "\"progetto.User\""
par DatabaseNetwork.user[10] userId 10
par DatabaseNetwork.user[10] lambda 0.05
par DatabaseNetwork.user[10] readProbability 0.3
par DatabaseNetwork.user[10] numTables 20
par DatabaseNetwork.user[10] tableDistribution "\"lognormal\""
par DatabaseNetwork.user[10] serviceTime 0.1s
attr unit s
par DatabaseNetwork.user[10] lognormalM 1.5
par DatabaseNetwork.user[10] lognormalS 1
scalar DatabaseNetwork.user[10] totalAccesses 503
scalar DatabaseNetwork.user[10] totalReads 141
scalar DatabaseNetwork.user[10] totalWrites 362
scalar DatabaseNetwork.user[10] averageWaitTime 0.10317777037941
scalar DatabaseNetwork.user[10] accessesPerSecond 0.0503
par DatabaseNetwork.user[11] typename "\"progetto.User\""
par DatabaseNetwork.user[11] userId 11
par DatabaseNetwork.user[11] lambda 0.05
par DatabaseNetwork.user[11] readProbability 0.3
par DatabaseNetwork.user[11] numTables 20
par DatabaseNetwork.user[11] tableDistribution "\"lognormal\""
par DatabaseNetwork.user[11] serviceTime 0.1s
attr unit s
par DatabaseNetwork.user[11] lognormalM 1.5
par DatabaseNetwork.user[11] lognormalS 1
scalar DatabaseNetwork.user[11] totalAccesses 522
scalar DatabaseNetwork.user[11] totalReads 147
scalar DatabaseNetwork.user[11] totalWrites 375
scalar DatabaseNetwork.user[11] averageWaitTime 0.10277756978981
scalar DatabaseNetwork.user[11] accessesPerSecond 0.0522
par DatabaseNetwork.user[12] typename "\"progetto.User\""
par DatabaseNetwork.user[12] userId 12
par DatabaseNetwork.user[12] lambda 0.05
par DatabaseNetwork.user[12] readProbability 0.3
par DatabaseNetwork.user[12] numTables 20
par DatabaseNetwork.user[12] tableDistribution "\"lognormal\""
par DatabaseNetwork.user[12] serviceTime 0.1s
attr unit s
par DatabaseNetwork.user[12] lognormalM 1.5
par DatabaseNetwork.user[12] lognormalS 1
scalar DatabaseNetwork.user[12] totalAccesses 473
scalar DatabaseNetwork.user[12] totalReads 137
scalar DatabaseNetwork.user[12] totalWrites 336
scalar DatabaseNetwork.user[12] averageWaitTime 0.1030539228841
scalar DatabaseNetwork.user[12] accessesPerSecond 0.0473
par DatabaseNetwork.user[13] typename "\"progetto.User\""
par DatabaseNetwork.user[13] userId 13
par DatabaseNetwork.user[13] lambda 0.05
par DatabaseNetwork.user[13] readProbability 0.3
par DatabaseNetwork.user[13] numTables 20
par DatabaseNetwork.user[13] tableDistribution "\"lognormal\""
par DatabaseNetwork.user[13] serviceTime 0.1s
attr unit s
par DatabaseNetwork.user[13] lognormalM 1.5
par DatabaseNetwork.user[13] lognormalS 1
scalar DatabaseNetwork.user[13] totalAccesses 526
scalar DatabaseNetwork.user[13] totalReads 168
scalar DatabaseNetwork.user[13] totalWrites 358
scalar DatabaseNetwork.user[13] averageWaitTime 0.1030766806558
scalar DatabaseNetwork.user[13] accessesPerSecond 0.0526
par DatabaseNetwork.user[14] typename "\"progetto.User\""
par DatabaseNetwork.user[14] userId 14
par DatabaseNetwork.user[14] lambda 0.05
par DatabaseNetwork.user[14] readProbability 0.3
par DatabaseNetwork.user[14] numTables 20
par DatabaseNetwork.user[14] tableDistribution "\"lognormal\""
par DatabaseNetwork.user[14] serviceTime 0.1s
attr unit s
par DatabaseNetwork.user[14] lognormalM 1.5
par DatabaseNetwork.user[14] lognormalS 1
scalar DatabaseNetwork.user[14] totalAccesses 475
scalar DatabaseNetwork.user[14] totalReads 152
scalar DatabaseNetwork.user[14] totalWrites 323
scalar DatabaseNetwork.user[14] averageWaitTime 0.10337778628621
scalar DatabaseNetwork.user[14] accessesPerSecond 0.0475
par DatabaseNetwork.user[15] typename "\"progetto.User\""
par DatabaseNetwork.user[15] userId 15
par DatabaseNetwork.user[15] lambda 0.05
par DatabaseNetwork.user[15] readProbability 0.3
par DatabaseNetwork.user[15] numTables 20
par DatabaseNetwork.user[15] tableDistribution "\"lognormal\""
par DatabaseNetwork.user[15] serviceTime 0.1s
attr unit s
par DatabaseNetwork.user[15] lognormalM 1.5
par DatabaseNetwork.user[15] lognormalS 1
scalar DatabaseNetwork.user[15] totalAccesses 477
scalar DatabaseNetwork.user[15] totalReads 131
scalar DatabaseNetwork.user[15] totalWrites 346
scalar DatabaseNetwork.user[15] averageWaitTime 0.1034831341409
scalar DatabaseNetwork.user[15] accessesPerSecond 0.0477
par DatabaseNetwork.user[16] typename "\"progetto.User\""
par DatabaseNetwork.user[16] userId 16
par DatabaseNetwork.user[16] lambda 0.05
par DatabaseNetwork.user[16] readProbability 0.3
par DatabaseNetwork.user[16] numTables 20
par DatabaseNetwork.user[16] tableDistribution "\"lognormal\""
par DatabaseNetwork.user[16] serviceTime 0.1s
attr unit s
par DatabaseNetwork.user[16] lognormalM 1.5
par DatabaseNetwork.user[16] lognormalS 1
scalar DatabaseNetwork.user[16] totalAccesses 498
scalar DatabaseNetwork.user[16] totalReads 125
scalar DatabaseNetwork.user[16] totalWrites 373
scalar DatabaseNetwork.user[16] averageWaitTime 0.1034873414437
scalar DatabaseNetwork.user[16] accessesPerSecond 0.0498
par DatabaseNetwork.user[17] typename "\"progetto.User\""
par DatabaseNetwork.user[17] userId 17
par DatabaseNetwork.user[17] lambda 0.05
par DatabaseNetwork.user[17] readProbability 0.3
par DatabaseNetwork.user[17] numTables 20
par DatabaseNetwork.user[17] tableDistribution "\"lognormal\""
par DatabaseNetwork.user[17] serviceTime 0.1s
attr unit s
par DatabaseNetwork.user[17] lognormalM 1.5
par DatabaseNetwork.user[17] lognormalS 1
scalar DatabaseNetwork.user[17] totalAccesses 508
scalar DatabaseNetwork.user[17] totalReads 138
scalar DatabaseNetwork.user[17] totalWrites 370
scalar DatabaseNetwork.user[17] averageWaitTime 0.10157582323242
scalar DatabaseNetwork.user[17] accessesPerSecond 0.0508
par DatabaseNetwork.user[18] typename "\"progetto.User\""
par DatabaseNetwork.user[18] userId 18
par DatabaseNetwork.user[18] lambda 0.05
par DatabaseNetwork.user[18] readProbability 0.3
par DatabaseNetwork.user[18] numTables 20
par DatabaseNetwork.user[18] tableDistribution "\"lognormal\""
par DatabaseNetwork.user[18] serviceTime 0.1s
attr unit s
par DatabaseNetwork.user[18] lognormalM 1.5
par DatabaseNetwork.user[18] lognormalS 1
scalar DatabaseNetwork.user[18] totalAccesses 470
scalar DatabaseNetwork.user[18] totalReads 152
scalar DatabaseNetwork.user[18] totalWrites 318
scalar DatabaseNetwork.user[18] averageWaitTime 0.10211528253146
scalar DatabaseNetwork.user[18] accessesPerSecond 0.047
par DatabaseNetwork.user[19] typename "\"progetto.User\""
par DatabaseNetwork.user[19] userId 19
par DatabaseNetwork.user[19] lambda 0.05
par DatabaseNetwork.user[19] readProbability 0.3
par DatabaseNetwork.user[19] numTables 20
par DatabaseNetwork.user[19] tableDistribution "\"lognormal\""
par DatabaseNetwork.user[19] serviceTime 0.1s
attr unit s
par DatabaseNetwork.user[19] lognormalM 1.5
par DatabaseNetwork.user[19] lognormalS 1
scalar DatabaseNetwork.user[19] totalAccesses 484
scalar DatabaseNetwork.user[19] totalReads 160
scalar DatabaseNetwork.user[19] totalWrites 324
scalar DatabaseNetwork.user[19] averageWaitTime 0.10177874286278
scalar DatabaseNetwork.user[19] accessesPerSecond 0.0484
par DatabaseNetwork.user[20] typename "\"progetto.User\""
par DatabaseNetwork.user[20] userId 20
par DatabaseNetwork.user[20] lambda 0.05
par DatabaseNetwork.user[20] readProbability 0.3
par DatabaseNetwork.user[20] numTables 20
par DatabaseNetwork.user[20] tableDistribution "\"lognormal\""
par DatabaseNetwork.user[20] serviceTime 0.1s
attr unit s
par DatabaseNetwork.user[20] lognormalM 1.5
par DatabaseNetwork.user[20] lognormalS 1
scalar DatabaseNetwork.user[20] totalAccesses 495
scalar DatabaseNetwork.user[20] totalReads 152
scalar DatabaseNetwork.user[20] totalWrites 343
scalar DatabaseNetwork.user[20] averageWaitTime 0.10200302595652
scalar DatabaseNetwork.user[20] accessesPerSecond 0.0495
par DatabaseNetwork.user[21] typename "\"progetto.User\""
par DatabaseNetwork.user[21] userId 21
par DatabaseNetwork.user[21] lambda 0.05
par DatabaseNetwork.user[21] readProbability 0.3
par DatabaseNetwork.user[21] numTables 20
par DatabaseNetwork.user[21] tableDistribution "\"lognormal\""
par DatabaseNetwork.user[21] serviceTime 0.1s
attr unit s
par DatabaseNetwork.user[21] lognormalM 1.5
par DatabaseNetwork.user[21] lognormalS 1
scalar DatabaseNetwork.user[21] totalAccesses 500
scalar DatabaseNetwork.user[21] totalReads 163
scalar DatabaseNetwork.user[21] totalWrites 337
scalar DatabaseNetwork.user[21] averageWaitTime 0.1029899404198
scalar DatabaseNetwork.user[21] accessesPerSecond 0.05
par DatabaseNetwork.user[22] typename "\"progetto.User\""
par DatabaseNetwork.user[22] userId 22
par DatabaseNetwork.user[22] lambda 0.05
par DatabaseNetwork.user[22] readProbability 0.3
par DatabaseNetwork.user[22] numTables 20
par DatabaseNetwork.user[22] tableDistribution "\"lognormal\""
par DatabaseNetwork.user[22] serviceTime 0.1s
attr unit s
par DatabaseNetwork.user[22] lognormalM 1.5
par DatabaseNetwork.user[22] lognormalS 1
scalar DatabaseNetwork.user[22] totalAccesses 528
scalar DatabaseNetwork.user[22] totalReads 159
scalar DatabaseNetwork.user[22] totalWrites 369
scalar DatabaseNetwork.user[22] averageWaitTime 0.10355543010858
scalar DatabaseNetwork.user[22] accessesPerSecond 0.0528
par DatabaseNetwork.user[23] typename "\"progetto.User\""
par DatabaseNetwork.user[23] userId 23
par DatabaseNetwork.user[23] lambda 0.05
par DatabaseNetwork.user[23] readProbability 0.3
par DatabaseNetwork.user[23] numTables 20
par DatabaseNetwork.user[23] tableDistribution "\"lognormal\""
par DatabaseNetwork.user[23] serviceTime 0.1s
attr unit s
par DatabaseNetwork.user[23] lognormalM 1.5
par DatabaseNetwork.user[23] lognormalS 1
scalar DatabaseNetwork.user[23] totalAccesses 488
scalar DatabaseNetwork.user[23] totalReads 141
scalar DatabaseNetwork.user[23] totalWrites 347
scalar DatabaseNetwork.user[23] averageWaitTime 0.10296122469055
scalar DatabaseNetwork.user[23] accessesPerSecond 0.0488
par DatabaseNetwork.user[24] typename "\"progetto.User\""
par DatabaseNetwork.user[24] userId 24
par DatabaseNetwork.user[24] lambda 0.05
par DatabaseNetwork.user[24] readProbability 0.3
par DatabaseNetwork.user[24] numTables 20
par DatabaseNetwork.user[24] tableDistribution "\"lognormal\""
par DatabaseNetwork.user[24] serviceTime 0.1s
attr unit s
par DatabaseNetwork.user[24] lognormalM 1.5
par DatabaseNetwork.user[24] lognormalS 1
scalar DatabaseNetwork.user[24] totalAccesses 477
scalar DatabaseNetwork.user[24] totalReads 153
scalar DatabaseNetwork.user[24] totalWrites 324
scalar DatabaseNetwork.user[24] averageWaitTime 0.10191329570149
scalar DatabaseNetwork.user[24] accessesPerSecond 0.0477
par DatabaseNetwork.user[25] typename "\"progetto.User\""
par DatabaseNetwork.user[25] userId 25
par DatabaseNetwork.user[25] lambda 0.05
par DatabaseNetwork.user[25] readProbability 0.3
par DatabaseNetwork.user[25] numTables 20
par DatabaseNetwork.user[25] tableDistribution "\"lognormal\""
par DatabaseNetwork.user[25] serviceTime 0.1s
attr unit s
par DatabaseNetwork.user[25] lognormalM 1.5
par DatabaseNetwork.user[25] lognormalS 1
scalar DatabaseNetwork.user[25] totalAccesses 516
scalar DatabaseNetwork.user[25] totalReads 142
scalar DatabaseNetwork.user[25] totalWrites 374
scalar DatabaseNetwork.user[25] averageWaitTime 0.10367016384551
scalar DatabaseNetwork.user[25] accessesPerSecond 0.0516
par DatabaseNetwork.user[26] typename "\"progetto.User\""
par DatabaseNetwork.user[26] userId 26
par DatabaseNetwork.user[26] lambda 0.05
par DatabaseNetwork.user[26] readProbability 0.3
par DatabaseNetwork.user[26] numTables 20
par DatabaseNetwork.user[26] tableDistribution "\"lognormal\""
par DatabaseNetwork.user[26] serviceTime 0.1s
attr unit s
par DatabaseNetwork.user[26] lognormalM 1.5
par DatabaseNetwork.user[26] lognormalS 1
scalar DatabaseNetwork.user[26] totalAccesses 527
scalar DatabaseNetwork.user[26] totalReads 169
scalar DatabaseNetwork.user[26] totalWrites 358
scalar DatabaseNetwork.user[26] averageWaitTime 0.10391017639502
scalar DatabaseNetwork.user[26] accessesPerSecond 0.0527
par DatabaseNetwork.user[27] typename "\"progetto.User\""
par DatabaseNetwork.user[27] userId 27
par DatabaseNetwork.user[27] lambda 0.05
par DatabaseNetwork.user[27] readProbability 0.3
par DatabaseNetwork.user[27] numTables 20
par DatabaseNetwork.user[27] tableDistribution "\"lognormal\""
par DatabaseNetwork.user[27] serviceTime 0.1s
attr unit s
par DatabaseNetwork.user[27] lognormalM 1.5
par DatabaseNetwork.user[27] lognormalS 1
scalar DatabaseNetwork.user[27] totalAccesses 552
scalar DatabaseNetwork.user[27] totalReads 186
scalar DatabaseNetwork.user[27] totalWrites 366
scalar DatabaseNetwork.user[27] averageWaitTime 0.10436715236987
scalar DatabaseNetwork.user[27] accessesPerSecond 0.0552
par DatabaseNetwork.user[28] typename "\"progetto.User\""
par DatabaseNetwork.user[28] userId 28
par DatabaseNetwork.user[28] lambda 0.05
par DatabaseNetwork.user[28] readProbability 0.3
par DatabaseNetwork.user[28] numTables 20
par DatabaseNetwork.user[28] tableDistribution "\"lognormal\""
par DatabaseNetwork.user[28] serviceTime 0.1s
attr unit s
par DatabaseNetwork.user[28] lognormalM 1.5
par DatabaseNetwork.user[28] lognormalS 1
scalar DatabaseNetwork.user[28] totalAccesses 508
scalar DatabaseNetwork.user[28] totalReads 141
scalar DatabaseNetwork.user[28] totalWrites 367
scalar DatabaseNetwork.user[28] averageWaitTime 0.10303364702034
scalar DatabaseNetwork.user[28] accessesPerSecond 0.0508
par DatabaseNetwork.user[29] typename "\"progetto.User\""
par DatabaseNetwork.user[29] userId 29
par DatabaseNetwork.user[29] lambda 0.05
par DatabaseNetwork.user[29] readProbability 0.3
par DatabaseNetwork.user[29] numTables 20
par DatabaseNetwork.user[29] tableDistribution "\"lognormal\""
par DatabaseNetwork.user[29] serviceTime 0.1s
attr unit s
par DatabaseNetwork.user[29] lognormalM 1.5
par DatabaseNetwork.user[29] lognormalS 1
scalar DatabaseNetwork.user[29] totalAccesses 480
scalar DatabaseNetwork.user[29] totalReads 129
scalar DatabaseNetwork.user[29] totalWrites 351
scalar DatabaseNetwork.user[29] averageWaitTime 0.10271337303475
scalar DatabaseNetwork.user[29] accessesPerSecond 0.048
par DatabaseNetwork.user[30] typename "\"progetto.User\""
par DatabaseNetwork.user[30] userId 30
par DatabaseNetwork.user[30] lambda 0.05
par DatabaseNetwork.user[30] readProbability 0.3
par DatabaseNetwork.user[30] numTables 20
par DatabaseNetwork.user[30] tableDistribution "\"lognormal\""
par DatabaseNetwork.user[30] serviceTime 0.1s
attr unit s
par DatabaseNetwork.user[30] lognormalM 1.5
par DatabaseNetwork.user[30] lognormalS 1
scalar DatabaseNetwork.user[30] totalAccesses 483
scalar DatabaseNetwork.user[30] totalReads 124
scalar DatabaseNetwork.user[30] totalWrites 359
scalar DatabaseNetwork.user[30] averageWaitTime 0.10389225621791
scalar DatabaseNetwork.user[30] accessesPerSecond 0.0483
par DatabaseNetwork.user[31] typename "\"progetto.User\""
par DatabaseNetwork.user[31] userId 31
par DatabaseNetwork.user[31] lambda 0.05
par DatabaseNetwork.user[31] readProbability 0.3
par DatabaseNetwork.user[31] numTables 20
par DatabaseNetwork.user[31] tableDistribution "\"lognormal\""
par DatabaseNetwork.user[31] serviceTime 0.1s
attr unit s
par DatabaseNetwork.user[31] lognormalM 1.5
par DatabaseNetwork.user[31] lognormalS 1
scalar DatabaseNetwork.user[31] totalAccesses 537
scalar DatabaseNetwork.user[31] totalReads 166
scalar DatabaseNetwork.user[31] totalWrites 371
scalar DatabaseNetwork.user[31] averageWaitTime 0.10355046341287
scalar DatabaseNetwork.user[31] accessesPerSecond 0.0537
par DatabaseNetwork.user[32] typename "\"progetto.User\""
par DatabaseNetwork.user[32] userId 32
par DatabaseNetwork.user[32] lambda 0.05
par DatabaseNetwork.user[32] readProbability 0.3
par DatabaseNetwork.user[32] numTables 20
par DatabaseNetwork.user[32] tableDistribution "\"lognormal\""
par DatabaseNetwork.user[32] serviceTime 0.1s
attr unit s
par DatabaseNetwork.user[32] lognormalM 1.5
par DatabaseNetwork.user[32] lognormalS 1
scalar DatabaseNetwork.user[32] totalAccesses 533
scalar DatabaseNetwork.user[32] totalReads 166
scalar DatabaseNetwork.user[32] totalWrites 367
scalar DatabaseNetwork.user[32] averageWaitTime 0.10350191317707
scalar DatabaseNetwork.user[32] accessesPerSecond 0.0533
par DatabaseNetwork.user[33] typename "\"progetto.User\""
par DatabaseNetwork.user[33] userId 33
par DatabaseNetwork.user[33] lambda 0.05
par DatabaseNetwork.user[33] readProbability 0.3
par DatabaseNetwork.user[33] numTables 20
par DatabaseNetwork.user[33] tableDistribution "\"lognormal\""
par DatabaseNetwork.user[33] serviceTime 0.1s
attr unit s
par DatabaseNetwork.user[33] lognormalM 1.5
par DatabaseNetwork.user[33] lognormalS 1
scalar DatabaseNetwork.user[33] totalAccesses 512
scalar DatabaseNetwork.user[33] totalReads 149
scalar DatabaseNetwork.user[33] totalWrites 363
scalar DatabaseNetwork.user[33] averageWaitTime 0.1032422132322
scalar DatabaseNetwork.user[33] accessesPerSecond 0.0512
par DatabaseNetwork.user[34] typename "\"progetto.User\""
par DatabaseNetwork.user[34] userId 34
par DatabaseNetwork.user[34] lambda 0.05
par DatabaseNetwork.user[34] readProbability 0.3
par DatabaseNetwork.user[34] numTables 20
par DatabaseNetwork.user[34] tableDistribution "\"lognormal\""
par DatabaseNetwork.user[34] serviceTime 0.1s
attr unit s
par DatabaseNetwork.user[34] lognormalM 1.5
par DatabaseNetwork.user[34] lognormalS 1
scalar DatabaseNetwork.user[34] totalAccesses 532
scalar DatabaseNetwork.user[34] totalReads 153
scalar DatabaseNetwork.user[34] totalWrites 379
scalar DatabaseNetwork.user[34] averageWaitTime 0.10356251989785
scalar DatabaseNetwork.user[34] accessesPerSecond 0.0532
par DatabaseNetwork.user[35] typename "\"progetto.User\""
par DatabaseNetwork.user[35] userId 35
par DatabaseNetwork.user[35] lambda 0.05
par DatabaseNetwork.user[35] readProbability 0.3
par DatabaseNetwork.user[35] numTables 20
par DatabaseNetwork.user[35] tableDistribution "\"lognormal\""
par DatabaseNetwork.user[35] serviceTime 0.1s
attr unit s
par DatabaseNetwork.user[35] lognormalM 1.5
par DatabaseNetwork.user[35] lognormalS 1
scalar DatabaseNetwork.user[35] totalAccesses 505
scalar DatabaseNetwork.user[35] totalReads 162
scalar DatabaseNetwork.user[35] totalWrites 343
scalar DatabaseNetwork.user[35] averageWaitTime 0.10267691614966
scalar DatabaseNetwork.user[35] accessesPerSecond 0.0505
par DatabaseNetwork.user[36] typename "\"progetto.User\""
par DatabaseNetwork.user[36] userId 36
par DatabaseNetwork.user[36] lambda 0.05
par DatabaseNetwork.user[36] readProbability 0.3
par DatabaseNetwork.user[36] numTables 20
par DatabaseNetwork.user[36] tableDistribution "\"lognormal\""
par DatabaseNetwork.user[36] serviceTime 0.1s
attr unit s
par DatabaseNetwork.user[36] lognormalM 1.5
par DatabaseNetwork.user[36] lognormalS 1
scalar DatabaseNetwork.user[36] totalAccesses 521
scalar DatabaseNetwork.user[36] totalReads 148
scalar DatabaseNetwork.user[36] totalWrites 373
scalar DatabaseNetwork.user[36] averageWaitTime 0.10416354788529
scalar DatabaseNetwork.user[36] accessesPerSecond 0.0521
par DatabaseNetwork.user[37] typename "\"progetto.User\""
par DatabaseNetwork.user[37] userId 37
par DatabaseNetwork.user[37] lambda 0.05
par DatabaseNetwork.user[37] readProbability 0.3
par DatabaseNetwork.user[37] numTables 20
par DatabaseNetwork.user[37] tableDistribution "\"lognormal\""
par DatabaseNetwork.user[37] serviceTime 0.1s
attr unit s
par DatabaseNetwork.user[37] lognormalM 1.5
par DatabaseNetwork.user[37] lognormalS 1
scalar DatabaseNetwork.user[37] totalAccesses 493
scalar DatabaseNetwork.user[37] totalReads 138
scalar DatabaseNetwork.user[37] totalWrites 355
scalar DatabaseNetwork.user[37] averageWaitTime 0.10372316578212
scalar DatabaseNetwork.user[37] accessesPerSecond 0.0493
par DatabaseNetwork.user[38] typename "\"progetto.User\""
par DatabaseNetwork.user[38] userId 38
par DatabaseNetwork.user[38] lambda 0.05
par DatabaseNetwork.user[38] readProbability 0.3
par DatabaseNetwork.user[38] numTables 20
par DatabaseNetwork.user[38] tableDistribution "\"lognormal\""
par DatabaseNetwork.user[38] serviceTime 0.1s
attr unit s
par DatabaseNetwork.user[38] lognormalM 1.5
par DatabaseNetwork.user[38] lognormalS 1
scalar DatabaseNetwork.user[38] totalAccesses 503
scalar DatabaseNetwork.user[38] totalReads 157
scalar DatabaseNetwork.user[38] totalWrites 346
scalar DatabaseNetwork.user[38] averageWaitTime 0.10329497973829
scalar DatabaseNetwork.user[38] accessesPerSecond 0.0503
par DatabaseNetwork.user[39] typename "\"progetto.User\""
par DatabaseNetwork.user[39] userId 39
par DatabaseNetwork.user[39] lambda 0.05
par DatabaseNetwork.user[39] readProbability 0.3
par DatabaseNetwork.user[39] numTables 20
par DatabaseNetwork.user[39] tableDistribution "\"lognormal\""
par DatabaseNetwork.user[39] serviceTime 0.1s
attr unit s
par DatabaseNetwork.user[39] lognormalM 1.5
par DatabaseNetwork.user[39] lognormalS 1
scalar DatabaseNetwork.user[39] totalAccesses 508
scalar DatabaseNetwork.user[39] totalReads 149
scalar DatabaseNetwork.user[39] totalWrites 359
scalar DatabaseNetwork.user[39] averageWaitTime 0.10396713483003
scalar DatabaseNetwork.user[39] accessesPerSecond 0.0508
par DatabaseNetwork.user[40] typename "\"progetto.User\""
par DatabaseNetwork.user[40] userId 40
par DatabaseNetwork.user[40] lambda 0.05
par DatabaseNetwork.user[40] readProbability 0.3
par DatabaseNetwork.user[40] numTables 20
par DatabaseNetwork.user[40] tableDistribution "\"lognormal\""
par DatabaseNetwork.user[40] serviceTime 0.1s
attr unit s
par DatabaseNetwork.user[40] lognormalM 1.5
par DatabaseNetwork.user[40] lognormalS 1
scalar DatabaseNetwork.user[40] totalAccesses 500
scalar DatabaseNetwork.user[40] totalReads 170
scalar DatabaseNetwork.user[40] totalWrites 330
scalar DatabaseNetwork.user[40] averageWaitTime 0.10267087574108
scalar DatabaseNetwork.user[40] accessesPerSecond 0.05
par DatabaseNetwork.user[41] typename "\"progetto.User\""
par DatabaseNetwork.user[41] userId 41
par DatabaseNetwork.user[41] lambda 0.05
par DatabaseNetwork.user[41] readProbability 0.3
par DatabaseNetwork.user[41] numTables 20
par DatabaseNetwork.user[41] tableDistribution "\"lognormal\""
par DatabaseNetwork.user[41] serviceTime 0.1s
attr unit s
par DatabaseNetwork.user[41] lognormalM 1.5
par DatabaseNetwork.user[41] lognormalS 1
scalar DatabaseNetwork.user[41] totalAccesses 447
scalar DatabaseNetwork.user[41] totalReads 136
scalar DatabaseNetwork.user[41] totalWrites 311
scalar DatabaseNetwork.user[41] averageWaitTime 0.10369149210537
scalar DatabaseNetwork.user[41] accessesPerSecond 0.0447
par DatabaseNetwork.user[42] typename "\"progetto.User\""
par DatabaseNetwork.user[42] userId 42
par DatabaseNetwork.user[42] lambda 0.05
par DatabaseNetwork.user[42] readProbability 0.3
par DatabaseNetwork.user[42] numTables 20
par DatabaseNetwork.user[42] tableDistribution "\"lognormal\""
par DatabaseNetwork.user[42] serviceTime 0.1s
attr unit s
par DatabaseNetwork.user[42] lognormalM 1.5
par DatabaseNetwork.user[42] lognormalS 1
scalar DatabaseNetwork.user[42] totalAccesses 453
scalar DatabaseNetwork.user[42] totalReads 135
scalar DatabaseNetwork.user[42] totalWrites 318
scalar DatabaseNetwork.user[42] averageWaitTime 0.10356921294868
scalar DatabaseNetwork.user[42] accessesPerSecond 0.0453
par DatabaseNetwork.user[43] typename "\"progetto.User\""
par DatabaseNetwork.user[43] userId 43
par DatabaseNetwork.user[43] lambda 0.05
par DatabaseNetwork.user[43] readProbability 0.3
par DatabaseNetwork.user[43] numTables 20
par DatabaseNetwork.user[43] tableDistribution "\"lognormal\""
par DatabaseNetwork.user[43] serviceTime 0.1s
attr unit s
par DatabaseNetwork.user[43] lognormalM 1.5
par DatabaseNetwork.user[43] lognormalS 1
scalar DatabaseNetwork.user[43] totalAccesses 510
scalar DatabaseNetwork.user[43] totalReads 166
scalar DatabaseNetwork.user[43] totalWrites 344
scalar DatabaseNetwork.user[43] averageWaitTime 0.10309038600488
scalar DatabaseNetwork.user[43] accessesPerSecond 0.051
par DatabaseNetwork.user[44] typename "\"progetto.User\""
par DatabaseNetwork.user[44] userId 44
par DatabaseNetwork.user[44] lambda 0.05
par DatabaseNetwork.user[44] readProbability 0.3
par DatabaseNetwork.user[44] numTables 20
par DatabaseNetwork.user[44] tableDistribution "\"lognormal\""
par DatabaseNetwork.user[44] serviceTime 0.1s
attr unit s
par DatabaseNetwork.user[44] lognormalM 1.5
par DatabaseNetwork.user[44] lognormalS 1
scalar DatabaseNetwork.user[44] totalAccesses 502
scalar DatabaseNetwork.user[44] totalReads 136
scalar DatabaseNetwork.user[44] totalWrites 366
scalar DatabaseNetwork.user[44] averageWaitTime 0.10316805365354
scalar DatabaseNetwork.user[44] accessesPerSecond 0.0502
par DatabaseNetwork.user[45] typename "\"progetto.User\""
par DatabaseNetwork.user[45] userId 45
par DatabaseNetwork.user[45] lambda 0.05
par DatabaseNetwork.user[45] readProbability 0.3
par DatabaseNetwork.user[45] numTables 20
par DatabaseNetwork.user[45] tableDistribution "\"lognormal\""
par DatabaseNetwork.user[45] serviceTime 0.1s
attr unit s
par DatabaseNetwork.user[45] lognormalM 1.5
par DatabaseNetwork.user[45] lognormalS 1
scalar DatabaseNetwork.user[45] totalAccesses 513
scalar DatabaseNetwork.user[45] totalReads 167
scalar DatabaseNetwork.user[45] totalWrites 346
scalar DatabaseNetwork.user[45] averageWaitTime 0.10251950467082
scalar DatabaseNetwork.user[45] accessesPerSecond 0.0513
par DatabaseNetwork.user[46] typename "\"progetto.User\""
par DatabaseNetwork.user[46] userId 46
par DatabaseNetwork.user[46] lambda 0.05
par DatabaseNetwork.user[46] readProbability 0.3
par DatabaseNetwork.user[46] numTables 20
par DatabaseNetwork.user[46] tableDistribution "\"lognormal\""
par DatabaseNetwork.user[46] serviceTime 0.1s
attr unit s
par DatabaseNetwork.user[46] lognormalM 1.5
par DatabaseNetwork.user[46] lognormalS 1
scalar DatabaseNetwork.user[46] totalAccesses 482
scalar DatabaseNetwork.user[46] totalReads 144
scalar DatabaseNetwork.user[46] totalWrites 338
scalar DatabaseNetwork.user[46] averageWaitTime 0.10348074211745
scalar DatabaseNetwork.user[46] accessesPerSecond 0.0482
par DatabaseNetwork.user[47] typename "\"progetto.User\""
par DatabaseNetwork.user[47] userId 47
par DatabaseNetwork.user[47] lambda 0.05
par DatabaseNetwork.user[47] readProbability 0.3
par DatabaseNetwork.user[47] numTables 20
par DatabaseNetwork.user[47] tableDistribution "\"lognormal\""
par DatabaseNetwork.user[47] serviceTime 0.1s
attr unit s
par DatabaseNetwork.user[47] lognormalM 1.5
par DatabaseNetwork.user[47] lognormalS 1
scalar DatabaseNetwork.user[47] totalAccesses 515
scalar DatabaseNetwork.user[47] totalReads 160
scalar DatabaseNetwork.user[47] totalWrites 355
scalar DatabaseNetwork.user[47] averageWaitTime 0.10260150002051
scalar DatabaseNetwork.user[47] accessesPerSecond 0.0515
par DatabaseNetwork.user[48] typename "\"progetto.User\""
par DatabaseNetwork.user[48] userId 48
par DatabaseNetwork.user[48] lambda 0.05
par DatabaseNetwork.user[48] readProbability 0.3
par DatabaseNetwork.user[48] numTables 20
par DatabaseNetwork.user[48] tableDistribution "\"lognormal\""
par DatabaseNetwork.user[48] serviceTime 0.1s
attr unit s
par DatabaseNetwork.user[48] lognormalM 1.5
par DatabaseNetwork.user[48] lognormalS 1
scalar DatabaseNetwork.user[48] totalAccesses 524
scalar DatabaseNetwork.user[48] totalReads 156
scalar DatabaseNetwork.user[48] totalWrites 368
scalar DatabaseNetwork.user[48] averageWaitTime 0.10387106703193
scalar DatabaseNetwork.user[48] accessesPerSecond 0.0524
par DatabaseNetwork.user[49] typename "\"progetto.User\""
par DatabaseNetwork.user[49] userId 49
par DatabaseNetwork.user[49] lambda 0.05
par DatabaseNetwork.user[49] readProbability 0.3
par DatabaseNetwork.user[49] numTables 20
par DatabaseNetwork.user[49] tableDistribution "\"lognormal\""
par DatabaseNetwork.user[49] serviceTime 0.1s
attr unit s
par DatabaseNetwork.user[49] lognormalM 1.5
par DatabaseNetwork.user[49] lognormalS 1
scalar DatabaseNetwork.user[49] totalAccesses 488
scalar DatabaseNetwork.user[49] totalReads 160
scalar DatabaseNetwork.user[49] totalWrites 328
scalar DatabaseNetwork.user[49] averageWaitTime 0.10312277525751
scalar DatabaseNetwork.user[49] accessesPerSecond 0.0488
par DatabaseNetwork.user[50] typename "\"progetto.User\""
par DatabaseNetwork.user[50] userId 50
par DatabaseNetwork.user[50] lambda 0.05
par DatabaseNetwork.user[50] readProbability 0.3
par DatabaseNetwork.user[50] numTables 20
par DatabaseNetwork.user[50] tableDistribution "\"lognormal\""
par DatabaseNetwork.user[50] serviceTime 0.1s
attr unit s
par DatabaseNetwork.user[50] lognormalM 1.5
par DatabaseNetwork.user[50] lognormalS 1
scalar DatabaseNetwork.user[50] totalAccesses 500
scalar DatabaseNetwork.user[50] totalReads 167
scalar DatabaseNetwork.user[50] totalWrites 333
scalar DatabaseNetwork.user[50] averageWaitTime 0.10390019919097
scalar DatabaseNetwork.user[50] accessesPerSecond 0.05
par DatabaseNetwork.user[51] typename "\"progetto.User\""
par DatabaseNetwork.user[51] userId 51
par DatabaseNetwork.user[51] lambda 0.05
par DatabaseNetwork.user[51] readProbability 0.3
par DatabaseNetwork.user[51] numTables 20
par DatabaseNetwork.user[51] tableDistribution "\"lognormal\""
par DatabaseNetwork.user[51] serviceTime 0.1s
attr unit s
par DatabaseNetwork.user[51] lognormalM 1.5
par DatabaseNetwork.user[51] lognormalS 1
scalar DatabaseNetwork.user[51] totalAccesses 508
scalar DatabaseNetwork.user[51] totalReads 155
scalar DatabaseNetwork.user[51] totalWrites 353
scalar DatabaseNetwork.user[51] averageWaitTime 0.10414722665146
scalar DatabaseNetwork.user[51] accessesPerSecond 0.0508
par DatabaseNetwork.user[52] typename "\"progetto.User\""
par DatabaseNetwork.user[52] userId 52
par DatabaseNetwork.user[52] lambda 0.05
par DatabaseNetwork.user[52] readProbability 0.3
par DatabaseNetwork.user[52] numTables 20
par DatabaseNetwork.user[52] tableDistribution "\"lognormal\""
par DatabaseNetwork.user[52] serviceTime 0.1s
attr unit s
par DatabaseNetwork.user[52] lognormalM 1.5
par DatabaseNetwork.user[52] lognormalS 1
scalar DatabaseNetwork.user[52] totalAccesses 468
scalar DatabaseNetwork.user[52] totalReads 139
scalar DatabaseNetwork.user[52] totalWrites 329
scalar DatabaseNetwork.user[52] averageWaitTime 0.10348331542464
scalar DatabaseNetwork.user[52] accessesPerSecond 0.0468
par DatabaseNetwork.user[53] typename "\"progetto.User\""
par DatabaseNetwork.user[53] userId 53
par DatabaseNetwork.user[53] lambda 0.05
par DatabaseNetwork.user[53] readProbability 0.3
par DatabaseNetwork.user[53] numTables 20
par DatabaseNetwork.user[53] tableDistribution "\"lognormal\""
par DatabaseNetwork.user[53] serviceTime 0.1s
attr unit s
par DatabaseNetwork.user[53] lognormalM 1.5
par DatabaseNetwork.user[53] lognormalS 1
scalar DatabaseNetwork.user[53] totalAccesses 483
scalar DatabaseNetwork.user[53] totalReads 140
scalar DatabaseNetwork.user[53] totalWrites 343
scalar DatabaseNetwork.user[53] averageWaitTime 0.1033146136775
scalar DatabaseNetwork.user[53] accessesPerSecond 0.0483
par DatabaseNetwork.user[54] typename "\"progetto.User\""
par DatabaseNetwork.user[54] userId 54
par DatabaseNetwork.user[54] lambda 0.05
par DatabaseNetwork.user[54] readProbability 0.3
par DatabaseNetwork.user[54] numTables 20
par DatabaseNetwork.user[54] tableDistribution "\"lognormal\""
par DatabaseNetwork.user[54] serviceTime 0.1s
attr unit s
par DatabaseNetwork.user[54] lognormalM 1.5
par DatabaseNetwork.user[54] lognormalS 1
scalar DatabaseNetwork.user[54] totalAccesses 536
scalar DatabaseNetwork.user[54] totalReads 148
scalar DatabaseNetwork.user[54] totalWrites 388
scalar DatabaseNetwork.user[54] averageWaitTime 0.10245673581426
scalar DatabaseNetwork.user[54] accessesPerSecond 0.0536
par DatabaseNetwork.user[55] typename "\"progetto.User\""
par DatabaseNetwork.user[55] userId 55
par DatabaseNetwork.user[55] lambda 0.05
par DatabaseNetwork.user[55] readProbability 0.3
par DatabaseNetwork.user[55] numTables 20
par DatabaseNetwork.user[55] tableDistribution "\"lognormal\""
par DatabaseNetwork.user[55] serviceTime 0.1s
attr unit s
par DatabaseNetwork.user[55] lognormalM 1.5
par DatabaseNetwork.user[55] lognormalS 1
scalar DatabaseNetwork.user[55] totalAccesses 477
scalar DatabaseNetwork.user[55] totalReads 143
scalar DatabaseNetwork.user[55] totalWrites 334
scalar DatabaseNetwork.user[55] averageWaitTime 0.10475718700354
scalar DatabaseNetwork.user[55] accessesPerSecond 0.0477
par DatabaseNetwork.user[56] typename "\"progetto.User\""
par DatabaseNetwork.user[56] userId 56
par DatabaseNetwork.user[56] lambda 0.05
par DatabaseNetwork.user[56] readProbability 0.3
par DatabaseNetwork.user[56] numTables 20
par DatabaseNetwork.user[56] tableDistribution "\"lognormal\""
par DatabaseNetwork.user[56] serviceTime 0.1s
attr unit s
par DatabaseNetwork.user[56] lognormalM 1.5
par DatabaseNetwork.user[56] lognormalS 1
scalar DatabaseNetwork.user[56] totalAccesses 523
scalar DatabaseNetwork.user[56] totalReads 173
scalar DatabaseNetwork.user[56] totalWrites 350
scalar DatabaseNetwork.user[56] averageWaitTime 0.10260388511283
scalar DatabaseNetwork.user[56] accessesPerSecond 0.0523
par DatabaseNetwork.user[57] typename "\"progetto.User\""
par DatabaseNetwork.user[57] userId 57
par DatabaseNetwork.user[57] lambda 0.05
par DatabaseNetwork.user[57] readProbability 0.3
par DatabaseNetwork.user[57] numTables 20
par DatabaseNetwork.user[57] tableDistribution "\"lognormal\""
par DatabaseNetwork.user[57] serviceTime 0.1s
attr unit s
par DatabaseNetwork.user[57] lognormalM 1.5
par DatabaseNetwork.user[57] lognormalS 1
scalar DatabaseNetwork.user[57] totalAccesses 473
scalar DatabaseNetwork.user[57] totalReads 138
scalar DatabaseNetwork.user[57] totalWrites 335
scalar DatabaseNetwork.user[57] averageWaitTime 0.10370602527263
scalar DatabaseNetwork.user[57] accessesPerSecond 0.0473
par DatabaseNetwork.user[58] typename "\"progetto.User\""
par DatabaseNetwork.user[58] userId 58
par DatabaseNetwork.user[58] lambda 0.05
par DatabaseNetwork.user[58] readProbability 0.3
par DatabaseNetwork.user[58] numTables 20
par DatabaseNetwork.user[58] tableDistribution "\"lognormal\""
par DatabaseNetwork.user[58] serviceTime 0.1s
attr unit s
par DatabaseNetwork.user[58] lognormalM 1.5
par DatabaseNetwork.user[58] lognormalS 1
scalar DatabaseNetwork.user[58] totalAccesses 482
scalar DatabaseNetwork.user[58] totalReads 133
scalar DatabaseNetwork.user[58] totalWrites 349
scalar DatabaseNetwork.user[58] averageWaitTime 0.10332861355273
scalar DatabaseNetwork.user[58] accessesPerSecond 0.0482
par DatabaseNetwork.user[59] typename "\"progetto.User\""
par DatabaseNetwork.user[59] userId 59
par DatabaseNetwork.user[59] lambda 0.05
par DatabaseNetwork.user[59] readProbability 0.3
par DatabaseNetwork.user[59] numTables 20
par DatabaseNetwork.user[59] tableDistribution "\"lognormal\""
par DatabaseNetwork.user[59] serviceTime 0.1s
attr unit s
par DatabaseNetwork.user[59] lognormalM 1.5
par DatabaseNetwork.user[59] lognormalS 1
scalar DatabaseNetwork.user[59] totalAccesses 499
scalar DatabaseNetwork.user[59] totalReads 168
scalar DatabaseNetwork.user[59] totalWrites 331
scalar DatabaseNetwork.user[59] averageWaitTime 0.10378010663281
scalar DatabaseNetwork.user[59] accessesPerSecond 0.0499
par DatabaseNetwork.user[60] typename "\"progetto.User\""
par DatabaseNetwork.user[60] userId 60
par DatabaseNetwork.user[60] lambda 0.05
par DatabaseNetwork.user[60] readProbability 0.3
par DatabaseNetwork.user[60] numTables 20
par DatabaseNetwork.user[60] tableDistribution "\"lognormal\""
par DatabaseNetwork.user[60] serviceTime 0.1s
attr unit s
par DatabaseNetwork.user[60] lognormalM 1.5
par DatabaseNetwork.user[60] lognormalS 1
scalar DatabaseNetwork.user[60] totalAccesses 496
scalar DatabaseNetwork.user[60] totalReads 157
scalar DatabaseNetwork.user[60] totalWrites 339
scalar DatabaseNetwork.user[60] averageWaitTime 0.10335382599569
scalar DatabaseNetwork.user[60] accessesPerSecond 0.0496
par DatabaseNetwork.user[61] typename "\"progetto.User\""
par DatabaseNetwork.user[61] userId 61
par DatabaseNetwork.user[61] lambda 0.05
par DatabaseNetwork.user[61] readProbability 0.3
par DatabaseNetwork.user[61] numTables 20
par DatabaseNetwork.user[61] tableDistribution "\"lognormal\""
par DatabaseNetwork.user[61] serviceTime 0.1s
attr unit s
par DatabaseNetwork.user[61] lognormalM 1.5
par DatabaseNetwork.user[61] lognormalS 1
scalar DatabaseNetwork.user[61] totalAccesses 530
scalar DatabaseNetwork.user[61] totalReads 140
scalar DatabaseNetwork.user[61] totalWrites 390
scalar DatabaseNetwork.user[61] averageWaitTime 0.10392988822795
scalar DatabaseNetwork.user[61] accessesPerSecond 0.053
par DatabaseNetwork.user[62] typename "\"progetto.User\""
par DatabaseNetwork.user[62] userId 62
par DatabaseNetwork.user[62] lambda 0.05
par DatabaseNetwork.user[62] readProbability 0.3
par DatabaseNetwork.user[62] numTables 20
par DatabaseNetwork.user[62] tableDistribution "\"lognormal\""
par DatabaseNetwork.user[62] serviceTime 0.1s
attr unit s
par DatabaseNetwork.user[62] lognormalM 1.5
par DatabaseNetwork.user[62] lognormalS 1
scalar DatabaseNetwork.user[62] totalAccesses 539
scalar DatabaseNetwork.user[62] totalReads 161
scalar DatabaseNetwork.user[62] totalWrites 378
scalar DatabaseNetwork.user[62] averageWaitTime 0.1022833716336
scalar DatabaseNetwork.user[62] accessesPerSecond 0.0539
par DatabaseNetwork.user[63] typename "\"progetto.User\""
par DatabaseNetwork.user[63] userId 63
par DatabaseNetwork.user[63] lambda 0.05
par DatabaseNetwork.user[63] readProbability 0.3
par DatabaseNetwork.user[63] numTables 20
par DatabaseNetwork.user[63] tableDistribution "\"lognormal\""
par DatabaseNetwork.user[63] serviceTime 0.1s
attr unit s
par DatabaseNetwork.user[63] lognormalM 1.5
par DatabaseNetwork.user[63] lognormalS 1
scalar DatabaseNetwork.user[63] totalAccesses 456
scalar DatabaseNetwork.user[63] totalReads 128
scalar DatabaseNetwork.user[63] totalWrites 328
scalar DatabaseNetwork.user[63] averageWaitTime 0.1038303478168
scalar DatabaseNetwork.user[63] accessesPerSecond 0.0456
par DatabaseNetwork.user[64] typename "\"progetto.User\""
par DatabaseNetwork.user[64] userId 64
par DatabaseNetwork.user[64] lambda 0.05
par DatabaseNetwork.user[64] readProbability 0.3
par DatabaseNetwork.user[64] numTables 20
par DatabaseNetwork.user[64] tableDistribution "\"lognormal\""
par DatabaseNetwork.user[64] serviceTime 0.1s
attr unit s
par DatabaseNetwork.user[64] lognormalM 1.5
par DatabaseNetwork.user[64] lognormalS 1
scalar DatabaseNetwork.user[64] totalAccesses 545
scalar DatabaseNetwork.user[64] totalReads 148
scalar DatabaseNetwork.user[64] totalWrites 397
scalar DatabaseNetwork.user[64] averageWaitTime 0.10399329481388
scalar DatabaseNetwork.user[64] accessesPerSecond 0.0545
par DatabaseNetwork.user[65] typename "\"progetto.User\""
par DatabaseNetwork.user[65] userId 65
par DatabaseNetwork.user[65] lambda 0.05
par DatabaseNetwork.user[65] readProbability 0.3
par DatabaseNetwork.user[65] numTables 20
par DatabaseNetwork.user[65] tableDistribution "\"lognormal\""
par DatabaseNetwork.user[65] serviceTime 0.1s
attr unit s
par DatabaseNetwork.user[65] lognormalM 1.5
par DatabaseNetwork.user[65] lognormalS 1
scalar DatabaseNetwork.user[65] totalAccesses 548
scalar DatabaseNetwork.user[65] totalReads 137
scalar DatabaseNetwork.user[65] totalWrites 411
scalar DatabaseNetwork.user[65] averageWaitTime 0.1032626750529
scalar DatabaseNetwork.user[65] accessesPerSecond 0.0548
par DatabaseNetwork.user[66] typename "\"progetto.User\""
par DatabaseNetwork.user[66] userId 66
par DatabaseNetwork.user[66] lambda 0.05
par DatabaseNetwork.user[66] readProbability 0.3
par DatabaseNetwork.user[66] numTables 20
par DatabaseNetwork.user[66] tableDistribution "\"lognormal\""
par DatabaseNetwork.user[66] serviceTime 0.1s
attr unit s
par DatabaseNetwork.user[66] lognormalM 1.5
par DatabaseNetwork.user[66] lognormalS 1
scalar DatabaseNetwork.user[66] totalAccesses 469
scalar DatabaseNetwork.user[66] totalReads 126
scalar DatabaseNetwork.user[66] totalWrites 343
scalar DatabaseNetwork.user[66] averageWaitTime 0.10257077864948
scalar DatabaseNetwork.user[66] accessesPerSecond 0.0469
par DatabaseNetwork.user[67] typename "\"progetto.User\""
par DatabaseNetwork.user[67] userId 67
par DatabaseNetwork.user[67] lambda 0.05
par DatabaseNetwork.user[67] readProbability 0.3
par DatabaseNetwork.user[67] numTables 20
par DatabaseNetwork.user[67] tableDistribution "\"lognormal\""
par DatabaseNetwork.user[67] serviceTime 0.1s
attr unit s
par DatabaseNetwork.user[67] lognormalM 1.5
par DatabaseNetwork.user[67] lognormalS 1
scalar DatabaseNetwork.user[67] totalAccesses 492
scalar DatabaseNetwork.user[67] totalReads 144
scalar DatabaseNetwork.user[67] totalWrites 348
scalar DatabaseNetwork.user[67] averageWaitTime 0.10384208520168
scalar DatabaseNetwork.user[67] accessesPerSecond 0.0492
par DatabaseNetwork.user[68] typename "\"progetto.User\""
par DatabaseNetwork.user[68] userId 68
par DatabaseNetwork.user[68] lambda 0.05
par DatabaseNetwork.user[68] readProbability 0.3
par DatabaseNetwork.user[68] numTables 20
par DatabaseNetwork.user[68] tableDistribution "\"lognormal\""
par DatabaseNetwork.user[68] serviceTime 0.1s
attr unit s
par DatabaseNetwork.user[68] lognormalM 1.5
par DatabaseNetwork.user[68] lognormalS 1
scalar DatabaseNetwork.user[68] totalAccesses 495
scalar DatabaseNetwork.user[68] totalReads 150
scalar DatabaseNetwork.user[68] totalWrites 345
scalar DatabaseNetwork.user[68] averageWaitTime 0.10477675608767
scalar DatabaseNetwork.user[68] accessesPerSecond 0.0495
par DatabaseNetwork.user[69] typename "\"progetto.User\""
par DatabaseNetwork.user[69] userId 69
par DatabaseNetwork.user[69] lambda 0.05
par DatabaseNetwork.user[69] readProbability 0.3
par DatabaseNetwork.user[69] numTables 20
par DatabaseNetwork.user[69] tableDistribution "\"lognormal\""
par DatabaseNetwork.user[69] serviceTime 0.1s
attr unit s
par DatabaseNetwork.user[69] lognormalM 1.5
par DatabaseNetwork.user[69] lognormalS 1
scalar DatabaseNetwork.user[69] totalAccesses 518
scalar DatabaseNetwork.user[69] totalReads 155
scalar DatabaseNetwork.user[69] totalWrites 363
scalar DatabaseNetwork.user[69] averageWaitTime 0.10276112870865
scalar DatabaseNetwork.user[69] accessesPerSecond 0.0518
par DatabaseNetwork.user[70] typename "\"progetto.User\""
par DatabaseNetwork.user[70] userId 70
par DatabaseNetwork.user[70] lambda 0.05
par DatabaseNetwork.user[70] readProbability 0.3
par DatabaseNetwork.user[70] numTables 20
par DatabaseNetwork.user[70] tableDistribution "\"lognormal\""
par DatabaseNetwork.user[70] serviceTime 0.1s
attr unit s
par DatabaseNetwork.user[70] lognormalM 1.5
par DatabaseNetwork.user[70] lognormalS 1
scalar DatabaseNetwork.user[70] totalAccesses 483
scalar DatabaseNetwork.user[70] totalReads 143
scalar DatabaseNetwork.user[70] totalWrites 340
scalar DatabaseNetwork.user[70] averageWaitTime 0.10319747451689
scalar DatabaseNetwork.user[70] accessesPerSecond 0.0483
par DatabaseNetwork.user[71] typename "\"progetto.User\""
par DatabaseNetwork.user[71] userId 71
par DatabaseNetwork.user[71] lambda 0.05
par DatabaseNetwork.user[71] readProbability 0.3
par DatabaseNetwork.user[71] numTables 20
par DatabaseNetwork.user[71] tableDistribution "\"lognormal\""
par DatabaseNetwork.user[71] serviceTime 0.1s
attr unit s
par DatabaseNetwork.user[71] lognormalM 1.5
par DatabaseNetwork.user[71] lognormalS 1
scalar DatabaseNetwork.user[71] totalAccesses 540
scalar DatabaseNetwork.user[71] totalReads 180
scalar DatabaseNetwork.user[71] totalWrites 360
scalar DatabaseNetwork.user[71] averageWaitTime 0.10245860621475
scalar DatabaseNetwork.user[71] accessesPerSecond 0.054
par DatabaseNetwork.user[72] typename "\"progetto.User\""
par DatabaseNetwork.user[72] userId 72
par DatabaseNetwork.user[72] lambda 0.05
par DatabaseNetwork.user[72] readProbability 0.3
par DatabaseNetwork.user[72] numTables 20
par DatabaseNetwork.user[72] tableDistribution "\"lognormal\""
par DatabaseNetwork.user[72] serviceTime 0.1s
attr unit s
par DatabaseNetwork.user[72] lognormalM 1.5
par DatabaseNetwork.user[72] lognormalS 1
scalar DatabaseNetwork.user[72] totalAccesses 498
scalar DatabaseNetwork.user[72] totalReads 147
scalar DatabaseNetwork.user[72] totalWrites 351
scalar DatabaseNetwork.user[72] averageWaitTime 0.10317677264806
scalar DatabaseNetwork.user[72] accessesPerSecond 0.0498
par DatabaseNetwork.user[73] typename "\"progetto.User\""
par DatabaseNetwork.user[73] userId 73
par DatabaseNetwork.user[73] lambda 0.05
par DatabaseNetwork.user[73] readProbability 0.3
par DatabaseNetwork.user[73] numTables 20
par DatabaseNetwork.user[73] tableDistribution "\"lognormal\""
par DatabaseNetwork.user[73] serviceTime 0.1s
attr unit s
par DatabaseNetwork.user[73] lognormalM 1.5
par DatabaseNetwork.user[73] lognormalS 1
scalar DatabaseNetwork.user[73] totalAccesses 454
scalar DatabaseNetwork.user[73] totalReads 153
scalar DatabaseNetwork.user[73] totalWrites 301
scalar DatabaseNetwork.user[73] averageWaitTime 0.10289482433048
scalar DatabaseNetwork.user[73] accessesPerSecond 0.0454
par DatabaseNetwork.user[74] typename "\"progetto.User\""
par DatabaseNetwork.user[74] userId 74
par DatabaseNetwork.user[74] lambda 0.05
par DatabaseNetwork.user[74] readProbability 0.3
par DatabaseNetwork.user[74] numTables 20
par DatabaseNetwork.user[74] tableDistribution "\"lognormal\""
par DatabaseNetwork.user[74] serviceTime 0.1s
attr unit s
par DatabaseNetwork.user[74] lognormalM 1.5
par DatabaseNetwork.user[74] lognormalS 1
scalar DatabaseNetwork.user[74] totalAccesses 502
scalar DatabaseNetwork.user[74] totalReads 156
scalar DatabaseNetwork.user[74] totalWrites 346
scalar DatabaseNetwork.user[74] averageWaitTime 0.1025041503895
scalar DatabaseNetwork.user[74] accessesPerSecond 0.0502
par DatabaseNetwork.user[75] typename "\"progetto.User\""
par DatabaseNetwork.user[75] userId 75
par DatabaseNetwork.user[75] lambda 0.05
par DatabaseNetwork.user[75] readProbability 0.3
par DatabaseNetwork.user[75] numTables 20
par DatabaseNetwork.user[75] tableDistribution "\"lognormal\""
par DatabaseNetwork.user[75] serviceTime 0.1s
attr unit s
par DatabaseNetwork.user[75] lognormalM 1.5
par DatabaseNetwork.user[75] lognormalS 1
scalar DatabaseNetwork.user[75] totalAccesses 508
scalar DatabaseNetwork.user[75] totalReads 163
scalar DatabaseNetwork.user[75] totalWrites 345
scalar DatabaseNetwork.user[75] averageWaitTime 0.10359310175959
scalar DatabaseNetwork.user[75] accessesPerSecond 0.0508
par DatabaseNetwork.user[76] typename "\"progetto.User\""
par DatabaseNetwork.user[76] userId 76
par DatabaseNetwork.user[76] lambda 0.05
par DatabaseNetwork.user[76] readProbability 0.3
par DatabaseNetwork.user[76] numTables 20
par DatabaseNetwork.user[76] tableDistribution "\"lognormal\""
par DatabaseNetwork.user[76] serviceTime 0.1s
attr unit s
par DatabaseNetwork.user[76] lognormalM 1.5
par DatabaseNetwork.user[76] lognormalS 1
scalar DatabaseNetwork.user[76] totalAccesses 474
scalar DatabaseNetwork.user[76] totalReads 152
scalar DatabaseNetwork.user[76] totalWrites 322
scalar DatabaseNetwork.user[76] averageWaitTime 0.10366886994594
scalar DatabaseNetwork.user[76] accessesPerSecond 0.0474
par DatabaseNetwork.user[77] typename "\"progetto.User\""
par DatabaseNetwork.user[77] userId 77
par DatabaseNetwork.user[77] lambda 0.05
par DatabaseNetwork.user[77] readProbability 0.3
par DatabaseNetwork.user[77] numTables 20
par DatabaseNetwork.user[77] tableDistribution "\"lognormal\""
par DatabaseNetwork.user[77] serviceTime 0.1s
attr unit s
par DatabaseNetwork.user[77] lognormalM 1.5
par DatabaseNetwork.user[77] lognormalS 1
scalar DatabaseNetwork.user[77] totalAccesses 508
scalar DatabaseNetwork.user[77] totalReads 146
scalar DatabaseNetwork.user[77] totalWrites 362
scalar DatabaseNetwork.user[77] averageWaitTime 0.10273712198101
scalar DatabaseNetwork.user[77] accessesPerSecond 0.0508
par DatabaseNetwork.user[78] typename "\"progetto.User\""
par DatabaseNetwork.user[78] userId 78
par DatabaseNetwork.user[78] lambda 0.05
par DatabaseNetwork.user[78] readProbability 0.3
par DatabaseNetwork.user[78] numTables 20
par DatabaseNetwork.user[78] tableDistribution "\"lognormal\""
par DatabaseNetwork.user[78] serviceTime 0.1s
attr unit s
par DatabaseNetwork.user[78] lognormalM 1.5
par DatabaseNetwork.user[78] lognormalS 1
scalar DatabaseNetwork.user[78] totalAccesses 485
scalar DatabaseNetwork.user[78] totalReads 137
scalar DatabaseNetwork.user[78] totalWrites 348
scalar DatabaseNetwork.user[78] averageWaitTime 0.10325787874904
scalar DatabaseNetwork.user[78] accessesPerSecond 0.0485
par DatabaseNetwork.user[79] typename "\"progetto.User\""
par DatabaseNetwork.user[79] userId 79
par DatabaseNetwork.user[79] lambda 0.05
par DatabaseNetwork.user[79] readProbability 0.3
par DatabaseNetwork.user[79] numTables 20
par DatabaseNetwork.user[79] tableDistribution "\"lognormal\""
par DatabaseNetwork.user[79] serviceTime 0.1s
attr unit s
par DatabaseNetwork.user[79] lognormalM 1.5
par DatabaseNetwork.user[79] lognormalS 1
scalar DatabaseNetwork.user[79] totalAccesses 529
scalar DatabaseNetwork.user[79] totalReads 144
scalar DatabaseNetwork.user[79] totalWrites 385
scalar DatabaseNetwork.user[79] averageWaitTime 0.10332884002894
scalar DatabaseNetwork.user[79] accessesPerSecond 0.0529
par DatabaseNetwork.user[80] typename "\"progetto.User\""
par DatabaseNetwork.user[80] userId 80
par DatabaseNetwork.user[80] lambda 0.05
par DatabaseNetwork.user[80] readProbability 0.3
par DatabaseNetwork.user[80] numTables 20
par DatabaseNetwork.user[80] tableDistribution "\"lognormal\""
par DatabaseNetwork.user[80] serviceTime 0.1s
attr unit s
par DatabaseNetwork.user[80] lognormalM 1.5
par DatabaseNetwork.user[80] lognormalS 1
scalar DatabaseNetwork.user[80] totalAccesses 520
scalar DatabaseNetwork.user[80] totalReads 167
scalar DatabaseNetwork.user[80] totalWrites 353
scalar DatabaseNetwork.user[80] averageWaitTime 0.10353606021029
scalar DatabaseNetwork.user[80] accessesPerSecond 0.052
par DatabaseNetwork.user[81] typename "\"progetto.User\""
par DatabaseNetwork.user[81] userId 81
par DatabaseNetwork.user[81] lambda 0.05
par DatabaseNetwork.user[81] readProbability 0.3
par DatabaseNetwork.user[81] numTables 20
par DatabaseNetwork.user[81] tableDistribution "\"lognormal\""
par DatabaseNetwork.user[81] serviceTime 0.1s
attr unit s
par DatabaseNetwork.user[81] lognormalM 1.5
par DatabaseNetwork.user[81] lognormalS 1
scalar DatabaseNetwork.user[81] totalAccesses 546
scalar DatabaseNetwork.user[81] totalReads 164
scalar DatabaseNetwork.user[81] totalWrites 382
scalar DatabaseNetwork.user[81] averageWaitTime 0.10307766676193
scalar DatabaseNetwork.user[81] accessesPerSecond 0.0546
par DatabaseNetwork.user[82] typename "\"progetto.User\""
par DatabaseNetwork.user[82] userId 82
par DatabaseNetwork.user[82] lambda 0.05
par DatabaseNetwork.user[82] readProbability 0.3
par DatabaseNetwork.user[82] numTables 20
par DatabaseNetwork.user[82] tableDistribution "\"lognormal\""
par DatabaseNetwork.user[82] serviceTime 0.1s
attr unit s
par DatabaseNetwork.user[82] lognormalM 1.5
par DatabaseNetwork.user[82] lognormalS 1
scalar DatabaseNetwork.user[82] totalAccesses 540
scalar DatabaseNetwork.user[82] totalReads 174
scalar DatabaseNetwork.user[82] totalWrites 366
scalar DatabaseNetwork.user[82] averageWaitTime 0.10311537786888
scalar DatabaseNetwork.user[82] accessesPerSecond 0.054
par DatabaseNetwork.user[83] typename "\"progetto.User\""
par DatabaseNetwork.user[83] userId 83
par DatabaseNetwork.user[83] lambda 0.05
par DatabaseNetwork.user[83] readProbability 0.3
par DatabaseNetwork.user[83] numTables 20
par DatabaseNetwork.user[83] tableDistribution "\"lognormal\""
par DatabaseNetwork.user[83] serviceTime 0.1s
attr unit s
par DatabaseNetwork.user[83] lognormalM 1.5
par DatabaseNetwork.user[83] lognormalS 1
scalar DatabaseNetwork.user[83] totalAccesses 520
scalar DatabaseNetwork.user[83] totalReads 173
scalar DatabaseNetwork.user[83] totalWrites 347
scalar DatabaseNetwork.user[83] averageWaitTime 0.1032282216604
scalar DatabaseNetwork.user[83] accessesPerSecond 0.052
par DatabaseNetwork.user[84] typename "\"progetto.User\""
par DatabaseNetwork.user[84] userId 84
par DatabaseNetwork.user[84] lambda 0.05
par DatabaseNetwork.user[84] readProbability 0.3
par DatabaseNetwork.user[84] numTables 20
par DatabaseNetwork.user[84] tableDistribution "\"lognormal\""
par DatabaseNetwork.user[84] serviceTime 0.1s
attr unit s
par DatabaseNetwork.user[84] lognormalM 1.5
par DatabaseNetwork.user[84] lognormalS 1
scalar DatabaseNetwork.user[84] totalAccesses 502
scalar DatabaseNetwork.user[84] totalReads 162
scalar DatabaseNetwork.user[84] totalWrites 340
scalar DatabaseNetwork.user[84] averageWaitTime 0.10249653169478
scalar DatabaseNetwork.user[84] accessesPerSecond 0.0502
par DatabaseNetwork.user[85] typename "\"progetto.User\""
par DatabaseNetwork.user[85] userId 85
par DatabaseNetwork.user[85] lambda 0.05
par DatabaseNetwork.user[85] readProbability 0.3
par DatabaseNetwork.user[85] numTables 20
par DatabaseNetwork.user[85] tableDistribution "\"lognormal\""
par DatabaseNetwork.user[85] serviceTime 0.1s
attr unit s
par DatabaseNetwork.user[85] lognormalM 1.5
par DatabaseNetwork.user[85] lognormalS 1
scalar DatabaseNetwork.user[85] totalAccesses 558
scalar DatabaseNetwork.user[85] totalReads 165
scalar DatabaseNetwork.user[85] totalWrites 393
scalar DatabaseNetwork.user[85] averageWaitTime 0.10383006033271
scalar DatabaseNetwork.user[85] accessesPerSecond 0.0558
par DatabaseNetwork.user[86] typename "\"progetto.User\""
par DatabaseNetwork.user[86] userId 86
par DatabaseNetwork.user[86] lambda 0.05
par DatabaseNetwork.user[86] readProbability 0.3
par DatabaseNetwork.user[86] numTables 20
par DatabaseNetwork.user[86] tableDistribution "\"lognormal\""
par DatabaseNetwork.user[86] serviceTime 0.1s
attr unit s
par DatabaseNetwork.user[86] lognormalM 1.5
par DatabaseNetwork.user[86] lognormalS 1
scalar DatabaseNetwork.user[86] totalAccesses 499
scalar DatabaseNetwork.user[86] totalReads 170
scalar DatabaseNetwork.user[86] totalWrites 329
scalar DatabaseNetwork.user[86] averageWaitTime 0.10324354659398
scalar DatabaseNetwork.user[86] accessesPerSecond 0.0499
par DatabaseNetwork.user[87] typename "\"progetto.User\""
par DatabaseNetwork.user[87] userId 87
par DatabaseNetwork.user[87] lambda 0.05
par DatabaseNetwork.user[87] readProbability 0.3
par DatabaseNetwork.user[87] numTables 20
par DatabaseNetwork.user[87] tableDistribution "\"lognormal\""
par DatabaseNetwork.user[87] serviceTime 0.1s
attr unit s
par DatabaseNetwork.user[87] lognormalM 1.5
par DatabaseNetwork.user[87] lognormalS 1
scalar DatabaseNetwork.user[87] totalAccesses 462
scalar DatabaseNetwork.user[87] totalReads 126
scalar DatabaseNetwork.user[87] totalWrites 336
scalar DatabaseNetwork.user[87] averageWaitTime 0.10343896589609
scalar DatabaseNetwork.user[87] accessesPerSecond 0.0462
par DatabaseNetwork.user[88] typename "\"progetto.User\""
par DatabaseNetwork.user[88] userId 88
par DatabaseNetwork.user[88] lambda 0.05
par DatabaseNetwork.user[88] readProbability 0.3
par DatabaseNetwork.user[88] numTables 20
par DatabaseNetwork.user[88] tableDistribution "\"lognormal\""
par DatabaseNetwork.user[88] serviceTime 0.1s
attr unit s
par DatabaseNetwork.user[88] lognormalM 1.5
par DatabaseNetwork.user[88] lognormalS 1
scalar DatabaseNetwork.user[88] totalAccesses 496
scalar DatabaseNetwork.user[88] totalReads 141
scalar DatabaseNetwork.user[88] totalWrites 355
scalar DatabaseNetwork.user[88] averageWaitTime 0.10228371226496
scalar DatabaseNetwork.user[88] accessesPerSecond 0.0496
par DatabaseNetwork.user[89] typename "\"progetto.User\""
par DatabaseNetwork.user[89] userId 89
par DatabaseNetwork.user[89] lambda 0.05
par DatabaseNetwork.user[89] readProbability 0.3
par DatabaseNetwork.user[89] numTables 20
par DatabaseNetwork.user[89] tableDistribution "\"lognormal\""
par DatabaseNetwork.user[89] serviceTime 0.1s
attr unit s
par DatabaseNetwork.user[89] lognormalM 1.5
par DatabaseNetwork.user[89] lognormalS 1
scalar DatabaseNetwork.user[89] totalAccesses 506
scalar DatabaseNetwork.user[89] totalReads 151
scalar DatabaseNetwork.user[89] totalWrites 355
scalar DatabaseNetwork.user[89] averageWaitTime 0.10205098404747
scalar DatabaseNetwork.user[89] accessesPerSecond 0.0506
par DatabaseNetwork.user[90] typename "\"progetto.User\""
par DatabaseNetwork.user[90] userId 90
par DatabaseNetwork.user[90] lambda 0.05
par DatabaseNetwork.user[90] readProbability 0.3
par DatabaseNetwork.user[90] numTables 20
par DatabaseNetwork.user[90] tableDistribution "\"lognormal\""
par DatabaseNetwork.user[90] serviceTime 0.1s
attr unit s
par DatabaseNetwork.user[90] lognormalM 1.5
par DatabaseNetwork.user[90] lognormalS 1
scalar DatabaseNetwork.user[90] totalAccesses 492
scalar DatabaseNetwork.user[90] totalReads 134
scalar DatabaseNetwork.user[90] totalWrites 358
scalar DatabaseNetwork.user[90] averageWaitTime 0.10292007257053
scalar DatabaseNetwork.user[90] accessesPerSecond 0.0492
par DatabaseNetwork.user[91] typename "\"progetto.User\""
par DatabaseNetwork.user[91] userId 91
par DatabaseNetwork.user[91] lambda 0.05
par DatabaseNetwork.user[91] readProbability 0.3
par DatabaseNetwork.user[91] numTables 20
par DatabaseNetwork.user[91] tableDistribution "\"lognormal\""
par DatabaseNetwork.user[91] serviceTime 0.1s
attr unit s
par DatabaseNetwork.user[91] lognormalM 1.5
par DatabaseNetwork.user[91] lognormalS 1
scalar DatabaseNetwork.user[91] totalAccesses 464
scalar DatabaseNetwork.user[91] totalReads 148
scalar DatabaseNetwork.user[91] totalWrites 316
scalar DatabaseNetwork.user[91] averageWaitTime 0.10371202451148
scalar DatabaseNetwork.user[91] accessesPerSecond 0.0464
par DatabaseNetwork.user[92] typename "\"progetto.User\""
par DatabaseNetwork.user[92] userId 92
par DatabaseNetwork.user[92] lambda 0.05
par DatabaseNetwork.user[92] readProbability 0.3
par DatabaseNetwork.user[92] numTables 20
par DatabaseNetwork.user[92] tableDistribution "\"lognormal\""
par DatabaseNetwork.user[92] serviceTime 0.1s
attr unit s
par DatabaseNetwork.user[92] lognormalM 1.5
par DatabaseNetwork.user[92] lognormalS 1
scalar DatabaseNetwork.user[92] totalAccesses 523
scalar DatabaseNetwork.user[92] totalReads 155
scalar DatabaseNetwork.user[92] totalWrites 368
scalar DatabaseNetwork.user[92] averageWaitTime 0.10276112343713
scalar DatabaseNetwork.user[92] accessesPerSecond 0.0523
par DatabaseNetwork.user[93] typename "\"progetto.User\""
par DatabaseNetwork.user[93] userId 93
par DatabaseNetwork.user[93] lambda 0.05
par DatabaseNetwork.user[93] readProbability 0.3
par DatabaseNetwork.user[93] numTables 20
par DatabaseNetwork.user[93] tableDistribution "\"lognormal\""
par DatabaseNetwork.user[93] serviceTime 0.1s
attr unit s
par DatabaseNetwork.user[93] lognormalM 1.5
par DatabaseNetwork.user[93] lognormalS 1
scalar DatabaseNetwork.user[93] totalAccesses 522
scalar DatabaseNetwork.user[93] totalReads 157
scalar DatabaseNetwork.user[93] totalWrites 365
scalar DatabaseNetwork.user[93] averageWaitTime 0.10303843236434
scalar DatabaseNetwork.user[93] accessesPerSecond 0.0522
par DatabaseNetwork.user[94] typename "\"progetto.User\""
par DatabaseNetwork.user[94] userId 94
par DatabaseNetwork.user[94] lambda 0.05
par DatabaseNetwork.user[94] readProbability 0.3
par DatabaseNetwork.user[94] numTables 20
par DatabaseNetwork.user[94] tableDistribution "\"lognormal\""
par DatabaseNetwork.user[94] serviceTime 0.1s
attr unit s
par DatabaseNetwork.user[94] lognormalM 1.5
par DatabaseNetwork.user[94] lognormalS 1
scalar DatabaseNetwork.user[94] totalAccesses 499
scalar DatabaseNetwork.user[94] totalReads 147
scalar DatabaseNetwork.user[94] totalWrites 352
scalar DatabaseNetwork.user[94] averageWaitTime 0.10363475895059
scalar DatabaseNetwork.user[94] accessesPerSecond 0.0499
par DatabaseNetwork.user[95] typename "\"progetto.User\""
par DatabaseNetwork.user[95] userId 95
par DatabaseNetwork.user[95] lambda 0.05
par DatabaseNetwork.user[95] readProbability 0.3
par DatabaseNetwork.user[95] numTables 20
par DatabaseNetwork.user[95] tableDistribution "\"lognormal\""
par DatabaseNetwork.user[95] serviceTime 0.1s
attr unit s
par DatabaseNetwork.user[95] lognormalM 1.5
par DatabaseNetwork.user[95] lognormalS 1
scalar DatabaseNetwork.user[95] totalAccesses 538
scalar DatabaseNetwork.user[95] totalReads 158
scalar DatabaseNetwork.user[95] totalWrites 380
scalar DatabaseNetwork.user[95] averageWaitTime 0.10314865106024
scalar DatabaseNetwork.user[95] accessesPerSecond 0.0538
par DatabaseNetwork.user[96] typename "\"progetto.User\""
par DatabaseNetwork.user[96] userId 96
par DatabaseNetwork.user[96] lambda 0.05
par DatabaseNetwork.user[96] readProbability 0.3
par DatabaseNetwork.user[96] numTables 20
par DatabaseNetwork.user[96] tableDistribution "\"lognormal\""
par DatabaseNetwork.user[96] serviceTime 0.1s
attr unit s
par DatabaseNetwork.user[96] lognormalM 1.5
par DatabaseNetwork.user[96] lognormalS 1
scalar DatabaseNetwork.user[96] totalAccesses 505
scalar DatabaseNetwork.user[96] totalReads 139
scalar DatabaseNetwork.user[96] totalWrites 366
scalar DatabaseNetwork.user[96] averageWaitTime 0.10324964432646
scalar DatabaseNetwork.user[96] accessesPerSecond 0.0505
par DatabaseNetwork.user[97] typename "\"progetto.User\""
par DatabaseNetwork.user[97] userId 97
par DatabaseNetwork.user[97] lambda 0.05
par DatabaseNetwork.user[97] readProbability 0.3
par DatabaseNetwork.user[97] numTables 20
par DatabaseNetwork.user[97] tableDistribution "\"lognormal\""
par DatabaseNetwork.user[97] serviceTime 0.1s
attr unit s
par DatabaseNetwork.user[97] lognormalM 1.5
par DatabaseNetwork.user[97] lognormalS 1
scalar DatabaseNetwork.user[97] totalAccesses 526
scalar DatabaseNetwork.user[97] totalReads 174
scalar DatabaseNetwork.user[97] totalWrites 352
scalar DatabaseNetwork.user[97] averageWaitTime 0.10304693671011
scalar DatabaseNetwork.user[97] accessesPerSecond 0.0526
par DatabaseNetwork.user[98] typename "\"progetto.User\""
par DatabaseNetwork.user[98] userId 98
par DatabaseNetwork.user[98] lambda 0.05
par DatabaseNetwork.user[98] readProbability 0.3
par DatabaseNetwork.user[98] numTables 20
par DatabaseNetwork.user[98] tableDistribution "\"lognormal\""
par DatabaseNetwork.user[98] serviceTime 0.1s
attr unit s
par DatabaseNetwork.user[98] lognormalM 1.5
par DatabaseNetwork.user[98] lognormalS 1
scalar DatabaseNetwork.user[98] totalAccesses 488
scalar DatabaseNetwork.user[98] totalReads 149
scalar DatabaseNetwork.user[98] totalWrites 339
scalar DatabaseNetwork.user[98] averageWaitTime 0.10177280392711
scalar DatabaseNetwork.user[98] accessesPerSecond 0.0488
par DatabaseNetwork.user[99] typename "\"progetto.User\""
par DatabaseNetwork.user[99] userId 99
par DatabaseNetwork.user[99] lambda 0.05
par DatabaseNetwork.user[99] readProbability 0.3
par DatabaseNetwork.user[99] numTables 20
par DatabaseNetwork.user[99] tableDistribution "\"lognormal\""
par DatabaseNetwork.user[99] serviceTime 0.1s
attr unit s
par DatabaseNetwork.user[99] lognormalM 1.5
par DatabaseNetwork.user[99] lognormalS 1
scalar DatabaseNetwork.user[99] totalAccesses 479
scalar DatabaseNetwork.user[99] totalReads 153
scalar DatabaseNetwork.user[99] totalWrites 326
scalar DatabaseNetwork.user[99] averageWaitTime 0.1035802868622
scalar DatabaseNetwork.user[99] accessesPerSecond 0.0479
par DatabaseNetwork.user[100] typename "\"progetto.User\""
par DatabaseNetwork.user[100] userId 100
par DatabaseNetwork.user[100] lambda 0.05
par DatabaseNetwork.user[100] readProbability 0.3
par DatabaseNetwork.user[100] numTables 20
par DatabaseNetwork.user[100] tableDistribution "\"lognormal\""
par DatabaseNetwork.user[100] serviceTime 0.1s
attr unit s
par DatabaseNetwork.user[100] lognormalM 1.5
par DatabaseNetwork.user[100] lognormalS 1
scalar DatabaseNetwork.user[100] totalAccesses 503
scalar DatabaseNetwork.user[100] totalReads 152
scalar DatabaseNetwork.user[100] totalWrites 351
scalar DatabaseNetwork.user[100] averageWaitTime 0.10274926172123
scalar DatabaseNetwork.user[100] accessesPerSecond 0.0503
par DatabaseNetwork.user[101] typename "\"progetto.User\""
par DatabaseNetwork.user[101] userId 101
par DatabaseNetwork.user[101] lambda 0.05
par DatabaseNetwork.user[101] readProbability 0.3
par DatabaseNetwork.user[101] numTables 20
par DatabaseNetwork.user[101] tableDistribution "\"lognormal\""
par DatabaseNetwork.user[101] serviceTime 0.1s
attr unit s
par DatabaseNetwork.user[101] lognormalM 1.5
par DatabaseNetwork.user[101] lognormalS 1
scalar DatabaseNetwork.user[101] totalAccesses 477
scalar DatabaseNetwork.user[101] totalReads 137
scalar DatabaseNetwork.user[101] totalWrites 340
scalar DatabaseNetwork.user[101] averageWaitTime 0.1030170454446
scalar DatabaseNetwork.user[101] accessesPerSecond 0.0477
par DatabaseNetwork.user[102] typename "\"progetto.User\""
par DatabaseNetwork.user[102] userId 102
par DatabaseNetwork.user[102] lambda 0.05
par DatabaseNetwork.user[102] readProbability 0.3
par DatabaseNetwork.user[102] numTables 20
par DatabaseNetwork.user[102] tableDistribution "\"lognormal\""
par DatabaseNetwork.user[102] serviceTime 0.1s
attr unit s
par DatabaseNetwork.user[102] lognormalM 1.5
par DatabaseNetwork.user[102] lognormalS 1
scalar DatabaseNetwork.user[102] totalAccesses 531
scalar DatabaseNetwork.user[102] totalReads 151
scalar DatabaseNetwork.user[102] totalWrites 380
scalar DatabaseNetwork.user[102] averageWaitTime 0.10275801687101
scalar DatabaseNetwork.user[102] accessesPerSecond 0.0531
par DatabaseNetwork.user[103] typename "\"progetto.User\""
par DatabaseNetwork.user[103] userId 103
par DatabaseNetwork.user[103] lambda 0.05
par DatabaseNetwork.user[103] readProbability 0.3
par DatabaseNetwork.user[103] numTables 20
par DatabaseNetwork.user[103] tableDistribution "\"lognormal\""
par DatabaseNetwork.user[103] serviceTime 0.1s
attr unit s
par DatabaseNetwork.user[103] lognormalM 1.5
par DatabaseNetwork.user[103] lognormalS 1
scalar DatabaseNetwork.user[103] totalAccesses 500
scalar DatabaseNetwork.user[103] totalReads 153
scalar DatabaseNetwork.user[103] totalWrites 347
scalar DatabaseNetwork.user[103] averageWaitTime 0.10355336492408
scalar DatabaseNetwork.user[103] accessesPerSecond 0.05
par DatabaseNetwork.user[104] typename "\"progetto.User\""
par DatabaseNetwork.user[104] userId 104
par DatabaseNetwork.user[104] lambda 0.05
par DatabaseNetwork.user[104] readProbability 0.3
par DatabaseNetwork.user[104] numTables 20
par DatabaseNetwork.user[104] tableDistribution "\"lognormal\""
par DatabaseNetwork.user[104] serviceTime 0.1s
attr unit s
par DatabaseNetwork.user[104] lognormalM 1.5
par DatabaseNetwork.user[104] lognormalS 1
scalar DatabaseNetwork.user[104] totalAccesses 496
scalar DatabaseNetwork.user[104] totalReads 141
scalar DatabaseNetwork.user[104] totalWrites 355
scalar DatabaseNetwork.user[104] averageWaitTime 0.10320575600988
scalar DatabaseNetwork.user[104] accessesPerSecond 0.0496
par DatabaseNetwork.user[105] typename "\"progetto.User\""
par DatabaseNetwork.user[105] userId 105
par DatabaseNetwork.user[105] lambda 0.05
par DatabaseNetwork.user[105] readProbability 0.3
par DatabaseNetwork.user[105] numTables 20
par DatabaseNetwork.user[105] tableDistribution "\"lognormal\""
par DatabaseNetwork.user[105] serviceTime 0.1s
attr unit s
par DatabaseNetwork.user[105] lognormalM 1.5
par DatabaseNetwork.user[105] lognormalS 1
scalar DatabaseNetwork.user[105] totalAccesses 504
scalar DatabaseNetwork.user[105] totalReads 145
scalar DatabaseNetwork.user[105] totalWrites 359
scalar DatabaseNetwork.user[105] averageWaitTime 0.10403412292682
scalar DatabaseNetwork.user[105] accessesPerSecond 0.0504
par DatabaseNetwork.user[106] typename "\"progetto.User\""
par DatabaseNetwork.user[106] userId 106
par DatabaseNetwork.user[106] lambda 0.05
par DatabaseNetwork.user[106] readProbability 0.3
par DatabaseNetwork.user[106] numTables 20
par DatabaseNetwork.user[106] tableDistribution "\"lognormal\""
par DatabaseNetwork.user[106] serviceTime 0.1s
attr unit s
par DatabaseNetwork.user[106] lognormalM 1.5
par DatabaseNetwork.user[106] lognormalS 1
scalar DatabaseNetwork.user[106] totalAccesses 521
scalar DatabaseNetwork.user[106] totalReads 158
scalar DatabaseNetwork.user[106] totalWrites 363
scalar DatabaseNetwork.user[106] averageWaitTime 0.10185739627145
scalar DatabaseNetwork.user[106] accessesPerSecond 0.0521
par DatabaseNetwork.user[107] typename "\"progetto.User\""
par DatabaseNetwork.user[107] userId 107
par DatabaseNetwork.user[107] lambda 0.05
par DatabaseNetwork.user[107] readProbability 0.3
par DatabaseNetwork.user[107] numTables 20
par DatabaseNetwork.user[107] tableDistribution "\"lognormal\""
par DatabaseNetwork.user[107] serviceTime 0.1s
attr unit s
par DatabaseNetwork.user[107] lognormalM 1.5
par DatabaseNetwork.user[107] lognormalS 1
scalar DatabaseNetwork.user[107] totalAccesses 531
scalar DatabaseNetwork.user[107] totalReads 180
scalar DatabaseNetwork.user[107] totalWrites 351
scalar DatabaseNetwork.user[107] averageWaitTime 0.10315984691258
scalar DatabaseNetwork.user[107] accessesPerSecond 0.0531
par DatabaseNetwork.user[108] typename "\"progetto.User\""
par DatabaseNetwork.user[108] userId 108
par DatabaseNetwork.user[108] lambda 0.05
par DatabaseNetwork.user[108] readProbability 0.3
par DatabaseNetwork.user[108] numTables 20
par DatabaseNetwork.user[108] tableDistribution "\"lognormal\""
par DatabaseNetwork.user[108] serviceTime 0.1s
attr unit s
par DatabaseNetwork.user[108] lognormalM 1.5
par DatabaseNetwork.user[108] lognormalS 1
scalar DatabaseNetwork.user[108] totalAccesses 497
scalar DatabaseNetwork.user[108] totalReads 145
scalar DatabaseNetwork.user[108] totalWrites 352
scalar DatabaseNetwork.user[108] averageWaitTime 0.10326623289297
scalar DatabaseNetwork.user[108] accessesPerSecond 0.0497
par DatabaseNetwork.user[109] typename "\"progetto.User\""
par DatabaseNetwork.user[109] userId 109
par DatabaseNetwork.user[109] lambda 0.05
par DatabaseNetwork.user[109] readProbability 0.3
par DatabaseNetwork.user[109] numTables 20
par DatabaseNetwork.user[109] tableDistribution "\"lognormal\""
par DatabaseNetwork.user[109] serviceTime 0.1s
attr unit s
par DatabaseNetwork.user[109] lognormalM 1.5
par DatabaseNetwork.user[109] lognormalS 1
scalar DatabaseNetwork.user[109] totalAccesses 464
scalar DatabaseNetwork.user[109] totalReads 146
scalar DatabaseNetwork.user[109] totalWrites 318
scalar DatabaseNetwork.user[109] averageWaitTime 0.10352497306679
scalar DatabaseNetwork.user[109] accessesPerSecond 0.0464
par DatabaseNetwork.user[110] typename "\"progetto.User\""
par DatabaseNetwork.user[110] userId 110
par DatabaseNetwork.user[110] lambda 0.05
par DatabaseNetwork.user[110] readProbability 0.3
par DatabaseNetwork.user[110] numTables 20
par DatabaseNetwork.user[110] tableDistribution "\"lognormal\""
par DatabaseNetwork.user[110] serviceTime 0.1s
attr unit s
par DatabaseNetwork.user[110] lognormalM 1.5
par DatabaseNetwork.user[110] lognormalS 1
scalar DatabaseNetwork.user[110] totalAccesses 555
scalar DatabaseNetwork.user[110] totalReads 162
scalar DatabaseNetwork.user[110] totalWrites 393
scalar DatabaseNetwork.user[110] averageWaitTime 0.10321403228273
scalar DatabaseNetwork.user[110] accessesPerSecond 0.0555
par DatabaseNetwork.user[111] typename "\"progetto.User\""
par DatabaseNetwork.user[111] userId 111
par DatabaseNetwork.user[111] lambda 0.05
par DatabaseNetwork.user[111] readProbability 0.3
par DatabaseNetwork.user[111] numTables 20
par DatabaseNetwork.user[111] tableDistribution "\"lognormal\""
par DatabaseNetwork.user[111] serviceTime 0.1s
attr unit s
par DatabaseNetwork.user[111] lognormalM 1.5
par DatabaseNetwork.user[111] lognormalS 1
scalar DatabaseNetwork.user[111] totalAccesses 491
scalar DatabaseNetwork.user[111] totalReads 174
scalar DatabaseNetwork.user[111] totalWrites 317
scalar DatabaseNetwork.user[111] averageWaitTime 0.10322694123227
scalar DatabaseNetwork.user[111] accessesPerSecond 0.0491
par DatabaseNetwork.user[112] typename "\"progetto.User\""
[...]
attr unit s
par DatabaseNetwork.user[138] lognormalM 1.5
par DatabaseNetwork.user[138] lognormalS 1
scalar DatabaseNetwork.user[138] totalAccesses 497
scalar DatabaseNetwork.user[138] totalReads 144
scalar DatabaseNetwork.user[138] totalWrites 353
scalar DatabaseNetwork.user[138] averageWaitTime 0.10450711014268
scalar DatabaseNetwork.user[138] accessesPerSecond 0.0497
par DatabaseNetwork.user[139] typename "\"progetto.User\""
par DatabaseNetwork.user[139] userId 139
par DatabaseNetwork.user[139] lambda 0.05
par DatabaseNetwork.user[139] readProbability 0.3
par DatabaseNetwork.user[139] numTables 20
par DatabaseNetwork.user[139] tableDistribution "\"lognormal\""
par DatabaseNetwork.user[139] serviceTime 0.1s
attr unit s
par DatabaseNetwork.user[139] lognormalM 1.5
par DatabaseNetwork.user[139] lognormalS 1
scalar DatabaseNetwork.user[139] totalAccesses 493
scalar DatabaseNetwork.user[139] totalReads 158
scalar DatabaseNetwork.user[139] totalWrites 335
scalar DatabaseNetwork.user[139] averageWaitTime 0.10310746607576
scalar DatabaseNetwork.user[139] accessesPerSecond 0.0493
par DatabaseNetwork.user[140] typename "\"progetto.User\""
par DatabaseNetwork.user[140] userId 140
par DatabaseNetwork.user[140] lambda 0.05
par DatabaseNetwork.user[140] readProbability 0.3
par DatabaseNetwork.user[140] numTables 20
par DatabaseNetwork.user[140] tableDistribution "\"lognormal\""
par DatabaseNetwork.user[140] serviceTime 0.1s
attr unit s
par DatabaseNetwork.user[140] lognormalM 1.5
par DatabaseNetwork.user[140] lognormalS 1
scalar DatabaseNetwork.user[140] totalAccesses 463
scalar DatabaseNetwork.user[140] totalReads 122
scalar DatabaseNetwork.user[140] totalWrites 341
scalar DatabaseNetwork.user[140] averageWaitTime 0.10198726504833
scalar DatabaseNetwork.user[140] accessesPerSecond 0.0463
par DatabaseNetwork.user[141] typename "\"progetto.User\""
par DatabaseNetwork.user[141] userId 141
par DatabaseNetwork.user[141] lambda 0.05
par DatabaseNetwork.user[141] readProbability 0.3
par DatabaseNetwork.user[141] numTables 20
par DatabaseNetwork.user[141] tableDistribution "\"lognormal\""
par DatabaseNetwork.user[141] serviceTime 0.1s
attr unit s
par DatabaseNetwork.user[141] lognormalM 1.5
par DatabaseNetwork.user[141] lognormalS 1
scalar DatabaseNetwork.user[141] totalAccesses 472
scalar DatabaseNetwork.user[141] totalReads 160
scalar DatabaseNetwork.user[141] totalWrites 312
scalar DatabaseNetwork.user[141] averageWaitTime 0.10284917079717
scalar DatabaseNetwork.user[141] accessesPerSecond 0.0472
par DatabaseNetwork.user[142] typename "\"progetto.User\""
par DatabaseNetwork.user[142] userId 142
par DatabaseNetwork.user[142] lambda 0.05
par DatabaseNetwork.user[142] readProbability 0.3
par DatabaseNetwork.user[142] numTables 20
par DatabaseNetwork.user[142] tableDistribution "\"lognormal\""
par DatabaseNetwork.user[142] serviceTime 0.1s
attr unit s
par DatabaseNetwork.user[142] lognormalM 1.5
par DatabaseNetwork.user[142] lognormalS 1
scalar DatabaseNetwork.user[142] totalAccesses 535
scalar DatabaseNetwork.user[142] totalReads 176
scalar DatabaseNetwork.user[142] totalWrites 359
scalar DatabaseNetwork.user[142] averageWaitTime 0.10251855386234
scalar DatabaseNetwork.user[142] accessesPerSecond 0.0535
par DatabaseNetwork.user[143] typename "\"progetto.User\""
par DatabaseNetwork.user[143] userId 143
par DatabaseNetwork.user[143] lambda 0.05
par DatabaseNetwork.user[143] readProbability 0.3
par DatabaseNetwork.user[143] numTables 20
par DatabaseNetwork.user[143] tableDistribution "\"lognormal\""
par DatabaseNetwork.user[143] serviceTime 0.1s
attr unit s
par DatabaseNetwork.user[143] lognormalM 1.5
par DatabaseNetwork.user[143] lognormalS 1
scalar DatabaseNetwork.user[143] totalAccesses 487
scalar DatabaseNetwork.user[143] totalReads 157
scalar DatabaseNetwork.user[143] totalWrites 330
scalar DatabaseNetwork.user[143] averageWaitTime 0.10361698634692
scalar DatabaseNetwork.user[143] accessesPerSecond 0.0487
par DatabaseNetwork.user[144] typename "\"progetto.User\""
par DatabaseNetwork.user[144] userId 144
par DatabaseNetwork.user[144] lambda 0.05
par DatabaseNetwork.user[144] readProbability 0.3
par DatabaseNetwork.user[144] numTables 20
par DatabaseNetwork.user[144] tableDistribution "\"lognormal\""
par DatabaseNetwork.user[144] serviceTime 0.1s
attr unit s
par DatabaseNetwork.user[144] lognormalM 1.5
par DatabaseNetwork.user[144] lognormalS 1
scalar DatabaseNetwork.user[144] totalAccesses 496
scalar DatabaseNetwork.user[144] totalReads 148
scalar DatabaseNetwork.user[144] totalWrites 348
scalar DatabaseNetwork.user[144] averageWaitTime 0.10353120895329
scalar DatabaseNetwork.user[144] accessesPerSecond 0.0496
par DatabaseNetwork.user[145] typename "\"progetto.User\""
par DatabaseNetwork.user[145] userId 145
par DatabaseNetwork.user[145] lambda 0.05
par DatabaseNetwork.user[145] readProbability 0.3
par DatabaseNetwork.user[145] numTables 20
par DatabaseNetwork.user[145] tableDistribution "\"lognormal\""
par DatabaseNetwork.user[145] serviceTime 0.1s
attr unit s
par DatabaseNetwork.user[145] lognormalM 1.5
par DatabaseNetwork.user[145] lognormalS 1
scalar DatabaseNetwork.user[145] totalAccesses 486
scalar DatabaseNetwork.user[145] totalReads 154
scalar DatabaseNetwork.user[145] totalWrites 332
scalar DatabaseNetwork.user[145] averageWaitTime 0.10365507342168
scalar DatabaseNetwork.user[145] accessesPerSecond 0.0486
par DatabaseNetwork.user[146] typename "\"progetto.User\""
par DatabaseNetwork.user[146] userId 146
par DatabaseNetwork.user[146] lambda 0.05
par DatabaseNetwork.user[146] readProbability 0.3
par DatabaseNetwork.user[146] numTables 20
par DatabaseNetwork.user[146] tableDistribution "\"lognormal\""
par DatabaseNetwork.user[146] serviceTime 0.1s
attr unit s
par DatabaseNetwork.user[146] lognormalM 1.5
par DatabaseNetwork.user[146] lognormalS 1
scalar DatabaseNetwork.user[146] totalAccesses 507
scalar DatabaseNetwork.user[146] totalReads 164
scalar DatabaseNetwork.user[146] totalWrites 343
scalar DatabaseNetwork.user[146] averageWaitTime 0.10341261368825
scalar DatabaseNetwork.user[146] accessesPerSecond 0.0507
par DatabaseNetwork.user[147] typename "\"progetto.User\""
par DatabaseNetwork.user[147] userId 147
par DatabaseNetwork.user[147] lambda 0.05
par DatabaseNetwork.user[147] readProbability 0.3
par DatabaseNetwork.user[147] numTables 20
par DatabaseNetwork.user[147] tableDistribution "\"lognormal\""
par DatabaseNetwork.user[147] serviceTime 0.1s
attr unit s
par DatabaseNetwork.user[147] lognormalM 1.5
par DatabaseNetwork.user[147] lognormalS 1
scalar DatabaseNetwork.user[147] totalAccesses 504
scalar DatabaseNetwork.user[147] totalReads 157
scalar DatabaseNetwork.user[147] totalWrites 347
scalar DatabaseNetwork.user[147] averageWaitTime 0.10346928315738
scalar DatabaseNetwork.user[147] accessesPerSecond 0.0504
par DatabaseNetwork.user[148] typename "\"progetto.User\""
par DatabaseNetwork.user[148] userId 148
par DatabaseNetwork.user[148] lambda 0.05
par DatabaseNetwork.user[148] readProbability 0.3
par DatabaseNetwork.user[148] numTables 20
par DatabaseNetwork.user[148] tableDistribution "\"lognormal\""
par DatabaseNetwork.user[148] serviceTime 0.1s
attr unit s
par DatabaseNetwork.user[148] lognormalM 1.5
par DatabaseNetwork.user[148] lognormalS 1
scalar DatabaseNetwork.user[148] totalAccesses 515
scalar DatabaseNetwork.user[148] totalReads 157
scalar DatabaseNetwork.user[148] totalWrites 358
scalar DatabaseNetwork.user[148] averageWaitTime 0.10290218907357
scalar DatabaseNetwork.user[148] accessesPerSecond 0.0515
par DatabaseNetwork.user[149] typename "\"progetto.User\""
par DatabaseNetwork.user[149] userId 149
par DatabaseNetwork.user[149] lambda 0.05
par DatabaseNetwork.user[149] readProbability 0.3
par DatabaseNetwork.user[149] numTables 20
par DatabaseNetwork.user[149] tableDistribution "\"lognormal\""
par DatabaseNetwork.user[149] serviceTime 0.1s
attr unit s
par DatabaseNetwork.user[149] lognormalM 1.5
par DatabaseNetwork.user[149] lognormalS 1
scalar DatabaseNetwork.user[149] totalAccesses 493
scalar DatabaseNetwork.user[149] totalReads 133
scalar DatabaseNetwork.user[149] totalWrites 360
scalar DatabaseNetwork.user[149] averageWaitTime 0.10318258116678
scalar DatabaseNetwork.user[149] accessesPerSecond 0.0493
par DatabaseNetwork.table[0] typename "\"progetto.Table\""
par DatabaseNetwork.table[0] tableId 0
scalar DatabaseNetwork.table[0] table.totalServed 5661
scalar DatabaseNetwork.table[0] table.totalReads 1625
scalar DatabaseNetwork.table[0] table.totalWrites 4036
scalar DatabaseNetwork.table[0] table.throughput 0.5661
scalar DatabaseNetwork.table[0] table.maxQueueLength 2
scalar DatabaseNetwork.table[0] table.avgQueueLength 1.0026497085321
scalar DatabaseNetwork.table[0] table.avgWaitingTime 0.0029385233097928
scalar DatabaseNetwork.table[0] table.utilization 0.99991494091851
par DatabaseNetwork.table[1] typename "\"progetto.Table\""
par DatabaseNetwork.table[1] tableId 1
scalar DatabaseNetwork.table[1] table.totalServed 11101
scalar DatabaseNetwork.table[1] table.totalReads 3338
scalar DatabaseNetwork.table[1] table.totalWrites 7763
scalar DatabaseNetwork.table[1] table.throughput 1.1101
scalar DatabaseNetwork.table[1] table.maxQueueLength 3
scalar DatabaseNetwork.table[1] table.avgQueueLength 1.0063958201964
scalar DatabaseNetwork.table[1] table.avgWaitingTime 0.0055195712052716
scalar DatabaseNetwork.table[1] table.utilization 0.99991338128975
par DatabaseNetwork.table[2] typename "\"progetto.Table\""
par DatabaseNetwork.table[2] tableId 2
scalar DatabaseNetwork.table[2] table.totalServed 10359
scalar DatabaseNetwork.table[2] table.totalReads 3161
scalar DatabaseNetwork.table[2] table.totalWrites 7198
scalar DatabaseNetwork.table[2] table.throughput 1.0359
scalar DatabaseNetwork.table[2] table.maxQueueLength 3
scalar DatabaseNetwork.table[2] table.avgQueueLength 1.0057920648711
scalar DatabaseNetwork.table[2] table.avgWaitingTime 0.0052199805513529
scalar DatabaseNetwork.table[2] table.utilization 0.99997989606508
par DatabaseNetwork.table[3] typename "\"progetto.Table\""
par DatabaseNetwork.table[3] tableId 3
scalar DatabaseNetwork.table[3] table.totalServed 8765
scalar DatabaseNetwork.table[3] table.totalReads 2704
scalar DatabaseNetwork.table[3] table.totalWrites 6061
scalar DatabaseNetwork.table[3] table.throughput 0.8765
scalar DatabaseNetwork.table[3] table.maxQueueLength 3
scalar DatabaseNetwork.table[3] table.avgQueueLength 1.0043354249857
scalar DatabaseNetwork.table[3] table.avgWaitingTime 0.0040904753365665
scalar DatabaseNetwork.table[3] table.utilization 0.99996954073049
par DatabaseNetwork.table[4] typename "\"progetto.Table\""
par DatabaseNetwork.table[4] tableId 4
scalar DatabaseNetwork.table[4] table.totalServed 7075
scalar DatabaseNetwork.table[4] table.totalReads 2144
scalar DatabaseNetwork.table[4] table.totalWrites 4931
scalar DatabaseNetwork.table[4] table.throughput 0.7075
scalar DatabaseNetwork.table[4] table.maxQueueLength 2
scalar DatabaseNetwork.table[4] table.avgQueueLength 1.0024028268551
scalar DatabaseNetwork.table[4] table.avgWaitingTime 0.0033526478404173
scalar DatabaseNetwork.table[4] table.utilization 0.9998027887192
par DatabaseNetwork.table[5] typename "\"progetto.Table\""
par DatabaseNetwork.table[5] tableId 5
scalar DatabaseNetwork.table[5] table.totalServed 5703
scalar DatabaseNetwork.table[5] table.totalReads 1700
scalar DatabaseNetwork.table[5] table.totalWrites 4003
scalar DatabaseNetwork.table[5] table.throughput 0.5703
scalar DatabaseNetwork.table[5] table.maxQueueLength 2
scalar DatabaseNetwork.table[5] table.avgQueueLength 1.0019288093986
scalar DatabaseNetwork.table[5] table.avgWaitingTime 0.0030841369550007
scalar DatabaseNetwork.table[5] table.utilization 0.99970976684805
par DatabaseNetwork.table[6] typename "\"progetto.Table\""
par DatabaseNetwork.table[6] tableId 6
scalar DatabaseNetwork.table[6] table.totalServed 4640
scalar DatabaseNetwork.table[6] table.totalReads 1395
scalar DatabaseNetwork.table[6] table.totalWrites 3245
scalar DatabaseNetwork.table[6] table.throughput 0.464
scalar DatabaseNetwork.table[6] table.maxQueueLength 2
scalar DatabaseNetwork.table[6] table.avgQueueLength 1.0015086206897
scalar DatabaseNetwork.table[6] table.avgWaitingTime 0.0023018732795753
scalar DatabaseNetwork.table[6] table.utilization 0.9997494706271
par DatabaseNetwork.table[7] typename "\"progetto.Table\""
par DatabaseNetwork.table[7] tableId 7
scalar DatabaseNetwork.table[7] table.totalServed 3747
scalar DatabaseNetwork.table[7] table.totalReads 1107
scalar DatabaseNetwork.table[7] table.totalWrites 2640
scalar DatabaseNetwork.table[7] table.throughput 0.3747
scalar DatabaseNetwork.table[7] table.maxQueueLength 2
scalar DatabaseNetwork.table[7] table.avgQueueLength 1.0002668801708
scalar DatabaseNetwork.table[7] table.avgWaitingTime 0.001648562246164
scalar DatabaseNetwork.table[7] table.utilization 0.99986362009285
par DatabaseNetwork.table[8] typename "\"progetto.Table\""
par DatabaseNetwork.table[8] tableId 8
scalar DatabaseNetwork.table[8] table.totalServed 3226
scalar DatabaseNetwork.table[8] table.totalReads 966
scalar DatabaseNetwork.table[8] table.totalWrites 2260
scalar DatabaseNetwork.table[8] table.throughput 0.3226
scalar DatabaseNetwork.table[8] table.maxQueueLength 1
scalar DatabaseNetwork.table[8] table.avgQueueLength 1
scalar DatabaseNetwork.table[8] table.avgWaitingTime 0.0013843572590408
scalar DatabaseNetwork.table[8] table.utilization 0.99994901386338
par DatabaseNetwork.table[9] typename "\"progetto.Table\""
par DatabaseNetwork.table[9] tableId 9
scalar DatabaseNetwork.table[9] table.totalServed 2569
scalar DatabaseNetwork.table[9] table.totalReads 766
scalar DatabaseNetwork.table[9] table.totalWrites 1803
scalar DatabaseNetwork.table[9] table.throughput 0.2569
scalar DatabaseNetwork.table[9] table.maxQueueLength 2
scalar DatabaseNetwork.table[9] table.avgQueueLength 1.00038925652
scalar DatabaseNetwork.table[9] table.avgWaitingTime 0.0014257917014472
scalar DatabaseNetwork.table[9] table.utilization 0.99990356550717
par DatabaseNetwork.table[10] typename "\"progetto.Table\""
par DatabaseNetwork.table[10] tableId 10
scalar DatabaseNetwork.table[10] table.totalServed 2330
scalar DatabaseNetwork.table[10] table.totalReads 686
scalar DatabaseNetwork.table[10] table.totalWrites 1644
scalar DatabaseNetwork.table[10] table.throughput 0.233
scalar DatabaseNetwork.table[10] table.maxQueueLength 1
scalar DatabaseNetwork.table[10] table.avgQueueLength 1
scalar DatabaseNetwork.table[10] table.avgWaitingTime 0.00094192928211573
scalar DatabaseNetwork.table[10] table.utilization 0.99861706737801
par DatabaseNetwork.table[11] typename "\"progetto.Table\""
par DatabaseNetwork.table[11] tableId 11
scalar DatabaseNetwork.table[11] table.totalServed 1871
scalar DatabaseNetwork.table[11] table.totalReads 543
scalar DatabaseNetwork.table[11] table.totalWrites 1328
scalar DatabaseNetwork.table[11] table.throughput 0.1871
scalar DatabaseNetwork.table[11] table.maxQueueLength 1
scalar DatabaseNetwork.table[11] table.avgQueueLength 1
scalar DatabaseNetwork.table[11] table.avgWaitingTime 0.00063825612832888
scalar DatabaseNetwork.table[11] table.utilization 0.99894084721775
par DatabaseNetwork.table[12] typename "\"progetto.Table\""
par DatabaseNetwork.table[12] tableId 12
scalar DatabaseNetwork.table[12] table.totalServed 1632
scalar DatabaseNetwork.table[12] table.totalReads 518
scalar DatabaseNetwork.table[12] table.totalWrites 1114
scalar DatabaseNetwork.table[12] table.throughput 0.1632
scalar DatabaseNetwork.table[12] table.maxQueueLength 1
scalar DatabaseNetwork.table[12] table.avgQueueLength 1
scalar DatabaseNetwork.table[12] table.avgWaitingTime 0.00087349492384893
scalar DatabaseNetwork.table[12] table.utilization 0.9987651322948
par DatabaseNetwork.table[13] typename "\"progetto.Table\""
par DatabaseNetwork.table[13] tableId 13
scalar DatabaseNetwork.table[13] table.totalServed 1356
scalar DatabaseNetwork.table[13] table.totalReads 440
scalar DatabaseNetwork.table[13] table.totalWrites 916
scalar DatabaseNetwork.table[13] table.throughput 0.1356
scalar DatabaseNetwork.table[13] table.maxQueueLength 1
scalar DatabaseNetwork.table[13] table.avgQueueLength 1
scalar DatabaseNetwork.table[13] table.avgWaitingTime 0.00030004170487281
scalar DatabaseNetwork.table[13] table.utilization 0.99938350113018
par DatabaseNetwork.table[14] typename "\"progetto.Table\""
par DatabaseNetwork.table[14] tableId 14
scalar DatabaseNetwork.table[14] table.totalServed 1246
scalar DatabaseNetwork.table[14] table.totalReads 372
scalar DatabaseNetwork.table[14] table.totalWrites 874
scalar DatabaseNetwork.table[14] table.throughput 0.1246
scalar DatabaseNetwork.table[14] table.maxQueueLength 1
scalar DatabaseNetwork.table[14] table.avgQueueLength 1
scalar DatabaseNetwork.table[14] table.avgWaitingTime 0.00075455929167468
scalar DatabaseNetwork.table[14] table.utilization 0.99760807366129
par DatabaseNetwork.table[15] typename "\"progetto.Table\""
par DatabaseNetwork.table[15] tableId 15
scalar DatabaseNetwork.table[15] table.totalServed 1007
scalar DatabaseNetwork.table[15] table.totalReads 303
scalar DatabaseNetwork.table[15] table.totalWrites 704
scalar DatabaseNetwork.table[15] table.throughput 0.1007
scalar DatabaseNetwork.table[15] table.maxQueueLength 1
scalar DatabaseNetwork.table[15] table.avgQueueLength 1
scalar DatabaseNetwork.table[15] table.avgWaitingTime 0.00047464628058597
scalar DatabaseNetwork.table[15] table.utilization 0.99927957064174
par DatabaseNetwork.table[16] typename "\"progetto.Table\""
par DatabaseNetwork.table[16] tableId 16
scalar DatabaseNetwork.table[16] table.totalServed 901
scalar DatabaseNetwork.table[16] table.totalReads 259
scalar DatabaseNetwork.table[16] table.totalWrites 642
scalar DatabaseNetwork.table[16] table.throughput 0.0901
scalar DatabaseNetwork.table[16] table.maxQueueLength 1
scalar DatabaseNetwork.table[16] table.avgQueueLength 1
scalar DatabaseNetwork.table[16] table.avgWaitingTime 0.00062678126813886
scalar DatabaseNetwork.table[16] table.utilization 0.99884535988089
par DatabaseNetwork.table[17] typename "\"progetto.Table\""
par DatabaseNetwork.table[17] tableId 17
scalar DatabaseNetwork.table[17] table.totalServed 811
scalar DatabaseNetwork.table[17] table.totalReads 232
scalar DatabaseNetwork.table[17] table.totalWrites 579
scalar DatabaseNetwork.table[17] table.throughput 0.0811
scalar DatabaseNetwork.table[17] table.maxQueueLength 1
scalar DatabaseNetwork.table[17] table.avgQueueLength 1
scalar DatabaseNetwork.table[17] table.avgWaitingTime 0.00052209051473597
scalar DatabaseNetwork.table[17] table.utilization 0.99948406276161
par DatabaseNetwork.table[18] typename "\"progetto.Table\""
par DatabaseNetwork.table[18] tableId 18
scalar DatabaseNetwork.table[18] table.totalServed 737
scalar DatabaseNetwork.table[18] table.totalReads 249
scalar DatabaseNetwork.table[18] table.totalWrites 488
scalar DatabaseNetwork.table[18] table.throughput 0.0737
scalar DatabaseNetwork.table[18] table.maxQueueLength 1
scalar DatabaseNetwork.table[18] table.avgQueueLength 1
scalar DatabaseNetwork.table[18] table.avgWaitingTime 0.00025904165169846
scalar DatabaseNetwork.table[18] table.utilization 0.99970357568576
par DatabaseNetwork.table[19] typename "\"progetto.Table\""
par DatabaseNetwork.table[19] tableId 19
scalar DatabaseNetwork.table[19] table.totalServed 651
scalar DatabaseNetwork.table[19] table.totalReads 222
scalar DatabaseNetwork.table[19] table.totalWrites 429
scalar DatabaseNetwork.table[19] table.throughput 0.0651
scalar DatabaseNetwork.table[19] table.maxQueueLength 1
scalar DatabaseNetwork.table[19] table.avgQueueLength 1
scalar DatabaseNetwork.table[19] table.avgWaitingTime 0.00046609596713408
scalar DatabaseNetwork.table[19] table.utilization 0.99845664084285
par DatabaseNetwork typename "\"progetto.DatabaseNetwork\""
par DatabaseNetwork numUsers 150
par DatabaseNetwork numTables 20

