version 3
run Lognormal-109-20260105-17:01:33-25149
attr configname Lognormal
attr datetime 20260105-17:01:33
attr datetimef 20260105-170133
attr experiment Lognormal
attr inifile omnetpp.ini
attr iterationvars "$N=200, $p=0.5"
attr iterationvarsd N=200/p=0.5
attr iterationvarsf N=200,p=0.5-
attr measurement "$N=200, $p=0.5"
attr network progetto.DatabaseNetwork
attr processid 25149
attr repetition 4
attr replication #4
attr resultdir results
attr runnumber 109
attr seedset 4
itervar N 200
itervar p 0.5
config description "Lognormal distribution (hotspots) - varia N e p"
config *.user[*].tableDistribution "\"lognormal\""
config *.user[*].lognormalM 1.5
config *.user[*].lognormalS 1.0
config *.numUsers 200
config *.user[*].readProbability 0.5
config network progetto.DatabaseNetwork
config sim-time-limit 10000s
config cpu-time-limit 3600s
config repeat 5
config seed-set 4
config output-vector-file "results/Lognormal-$N=200, $p=0.5-4.vec"
config output-scalar-file "results/Lognormal-$N=200, $p=0.5-4.sca"
config result-dir results
config **.vector-recording true
config **.scalar-recording true
config *.numTables 20
config *.user[*].lambda 0.05
config *.user[*].serviceTime 0.1s

par DatabaseNetwork.user[0] typename "\"progetto.User\""
par DatabaseNetwork.user[0] userId 0
par DatabaseNetwork.user[0] lambda 0.05
par DatabaseNetwork.user[0] readProbability 0.5
par DatabaseNetwork.user[0] numTables 20
par DatabaseNetwork.user[0] tableDistribution "\"lognormal\""
par DatabaseNetwork.user[0] serviceTime 0.1s
attr unit s
par DatabaseNetwork.user[0] lognormalM 1.5
par DatabaseNetwork.user[0] lognormalS 1
scalar DatabaseNetwork.user[0] totalAccesses 509
scalar DatabaseNetwork.user[0] totalReads 264
scalar DatabaseNetwork.user[0] totalWrites 245
scalar DatabaseNetwork.user[0] averageWaitTime 0.10300291774484
scalar DatabaseNetwork.user[0] accessesPerSecond 0.0509
par DatabaseNetwork.user[1] typename "\"progetto.User\""
par DatabaseNetwork.user[1] userId 1
par DatabaseNetwork.user[1] lambda 0.05
par DatabaseNetwork.user[1] readProbability 0.5
par DatabaseNetwork.user[1] numTables 20
par DatabaseNetwork.user[1] tableDistribution "\"lognormal\""
par DatabaseNetwork.user[1] serviceTime 0.1s
attr unit s
par DatabaseNetwork.user[1] lognormalM 1.5
par DatabaseNetwork.user[1] lognormalS 1
scalar DatabaseNetwork.user[1] totalAccesses 496
scalar DatabaseNetwork.user[1] totalReads 254
scalar DatabaseNetwork.user[1] totalWrites 242
scalar DatabaseNetwork.user[1] averageWaitTime 0.10429726993303
scalar DatabaseNetwork.user[1] accessesPerSecond 0.0496
par DatabaseNetwork.user[2] typename "\"progetto.User\""
par DatabaseNetwork.user[2] userId 2
par DatabaseNetwork.user[2] lambda 0.05
par DatabaseNetwork.user[2] readProbability 0.5
par DatabaseNetwork.user[2] numTables 20
par DatabaseNetwork.user[2] tableDistribution "\"lognormal\""
par DatabaseNetwork.user[2] serviceTime 0.1s
attr unit s
par DatabaseNetwork.user[2] lognormalM 1.5
par DatabaseNetwork.user[2] lognormalS 1
scalar DatabaseNetwork.user[2] totalAccesses 511
scalar DatabaseNetwork.user[2] totalReads 238
scalar DatabaseNetwork.user[2] totalWrites 273
scalar DatabaseNetwork.user[2] averageWaitTime 0.10486771220932
scalar DatabaseNetwork.user[2] accessesPerSecond 0.0511
par DatabaseNetwork.user[3] typename "\"progetto.User\""
par DatabaseNetwork.user[3] userId 3
par DatabaseNetwork.user[3] lambda 0.05
par DatabaseNetwork.user[3] readProbability 0.5
par DatabaseNetwork.user[3] numTables 20
par DatabaseNetwork.user[3] tableDistribution "\"lognormal\""
par DatabaseNetwork.user[3] serviceTime 0.1s
attr unit s
par DatabaseNetwork.user[3] lognormalM 1.5
par DatabaseNetwork.user[3] lognormalS 1
scalar DatabaseNetwork.user[3] totalAccesses 469
scalar DatabaseNetwork.user[3] totalReads 231
scalar DatabaseNetwork.user[3] totalWrites 238
scalar DatabaseNetwork.user[3] averageWaitTime 0.10483191670354
scalar DatabaseNetwork.user[3] accessesPerSecond 0.0469
par DatabaseNetwork.user[4] typename "\"progetto.User\""
par DatabaseNetwork.user[4] userId 4
par DatabaseNetwork.user[4] lambda 0.05
par DatabaseNetwork.user[4] readProbability 0.5
par DatabaseNetwork.user[4] numTables 20
par DatabaseNetwork.user[4] tableDistribution "\"lognormal\""
par DatabaseNetwork.user[4] serviceTime 0.1s
attr unit s
par DatabaseNetwork.user[4] lognormalM 1.5
par DatabaseNetwork.user[4] lognormalS 1
scalar DatabaseNetwork.user[4] totalAccesses 486
scalar DatabaseNetwork.user[4] totalReads 230
scalar DatabaseNetwork.user[4] totalWrites 256
scalar DatabaseNetwork.user[4] averageWaitTime 0.10339714728108
scalar DatabaseNetwork.user[4] accessesPerSecond 0.0486
par DatabaseNetwork.user[5] typename "\"progetto.User\""
par DatabaseNetwork.user[5] userId 5
par DatabaseNetwork.user[5] lambda 0.05
par DatabaseNetwork.user[5] readProbability 0.5
par DatabaseNetwork.user[5] numTables 20
par DatabaseNetwork.user[5] tableDistribution "\"lognormal\""
par DatabaseNetwork.user[5] serviceTime 0.1s
attr unit s
par DatabaseNetwork.user[5] lognormalM 1.5
par DatabaseNetwork.user[5] lognormalS 1
scalar DatabaseNetwork.user[5] totalAccesses 532
scalar DatabaseNetwork.user[5] totalReads 266
scalar DatabaseNetwork.user[5] totalWrites 266
scalar DatabaseNetwork.user[5] averageWaitTime 0.10382035455903
scalar DatabaseNetwork.user[5] accessesPerSecond 0.0532
par DatabaseNetwork.user[6] typename "\"progetto.User\""
par DatabaseNetwork.user[6] userId 6
par DatabaseNetwork.user[6] lambda 0.05
par DatabaseNetwork.user[6] readProbability 0.5
par DatabaseNetwork.user[6] numTables 20
par DatabaseNetwork.user[6] tableDistribution "\"lognormal\""
par DatabaseNetwork.user[6] serviceTime 0.1s
attr unit s
par DatabaseNetwork.user[6] lognormalM 1.5
par DatabaseNetwork.user[6] lognormalS 1
scalar DatabaseNetwork.user[6] totalAccesses 476
scalar DatabaseNetwork.user[6] totalReads 231
scalar DatabaseNetwork.user[6] totalWrites 245
scalar DatabaseNetwork.user[6] averageWaitTime 0.10494175393046
scalar DatabaseNetwork.user[6] accessesPerSecond 0.0476
par DatabaseNetwork.user[7] typename "\"progetto.User\""
par DatabaseNetwork.user[7] userId 7
par DatabaseNetwork.user[7] lambda 0.05
par DatabaseNetwork.user[7] readProbability 0.5
par DatabaseNetwork.user[7] numTables 20
par DatabaseNetwork.user[7] tableDistribution "\"lognormal\""
par DatabaseNetwork.user[7] serviceTime 0.1s
attr unit s
par DatabaseNetwork.user[7] lognormalM 1.5
par DatabaseNetwork.user[7] lognormalS 1
scalar DatabaseNetwork.user[7] totalAccesses 516
scalar DatabaseNetwork.user[7] totalReads 251
scalar DatabaseNetwork.user[7] totalWrites 265
scalar DatabaseNetwork.user[7] averageWaitTime 0.10416003992574
scalar DatabaseNetwork.user[7] accessesPerSecond 0.0516
par DatabaseNetwork.user[8] typename "\"progetto.User\""
par DatabaseNetwork.user[8] userId 8
par DatabaseNetwork.user[8] lambda 0.05
par DatabaseNetwork.user[8] readProbability 0.5
par DatabaseNetwork.user[8] numTables 20
par DatabaseNetwork.user[8] tableDistribution "\"lognormal\""
par DatabaseNetwork.user[8] serviceTime 0.1s
attr unit s
par DatabaseNetwork.user[8] lognormalM 1.5
par DatabaseNetwork.user[8] lognormalS 1
scalar DatabaseNetwork.user[8] totalAccesses 503
scalar DatabaseNetwork.user[8] totalReads 259
scalar DatabaseNetwork.user[8] totalWrites 244
scalar DatabaseNetwork.user[8] averageWaitTime 0.10520546774784
scalar DatabaseNetwork.user[8] accessesPerSecond 0.0503
par DatabaseNetwork.user[9] typename "\"progetto.User\""
par DatabaseNetwork.user[9] userId 9
par DatabaseNetwork.user[9] lambda 0.05
par DatabaseNetwork.user[9] readProbability 0.5
par DatabaseNetwork.user[9] numTables 20
par DatabaseNetwork.user[9] tableDistribution "\"lognormal\""
par DatabaseNetwork.user[9] serviceTime 0.1s
attr unit s
par DatabaseNetwork.user[9] lognormalM 1.5
par DatabaseNetwork.user[9] lognormalS 1
scalar DatabaseNetwork.user[9] totalAccesses 480
scalar DatabaseNetwork.user[9] totalReads 245
scalar DatabaseNetwork.user[9] totalWrites 235
scalar DatabaseNetwork.user[9] averageWaitTime 0.10370392623462
scalar DatabaseNetwork.user[9] accessesPerSecond 0.048
par DatabaseNetwork.user[10] typename "\"progetto.User\""
par DatabaseNetwork.user[10] userId 10
par DatabaseNetwork.user[10] lambda 0.05
par DatabaseNetwork.user[10] readProbability 0.5
par DatabaseNetwork.user[10] numTables 20
par DatabaseNetwork.user[10] tableDistribution "\"lognormal\""
par DatabaseNetwork.user[10] serviceTime 0.1s
attr unit s
par DatabaseNetwork.user[10] lognormalM 1.5
par DatabaseNetwork.user[10] lognormalS 1
scalar DatabaseNetwork.user[10] totalAccesses 545
scalar DatabaseNetwork.user[10] totalReads 282
scalar DatabaseNetwork.user[10] totalWrites 263
scalar DatabaseNetwork.user[10] averageWaitTime 0.10485081880958
scalar DatabaseNetwork.user[10] accessesPerSecond 0.0545
par DatabaseNetwork.user[11] typename "\"progetto.User\""
par DatabaseNetwork.user[11] userId 11
par DatabaseNetwork.user[11] lambda 0.05
par DatabaseNetwork.user[11] readProbability 0.5
par DatabaseNetwork.user[11] numTables 20
par DatabaseNetwork.user[11] tableDistribution "\"lognormal\""
par DatabaseNetwork.user[11] serviceTime 0.1s
attr unit s
par DatabaseNetwork.user[11] lognormalM 1.5
par DatabaseNetwork.user[11] lognormalS 1
scalar DatabaseNetwork.user[11] totalAccesses 526
scalar DatabaseNetwork.user[11] totalReads 249
scalar DatabaseNetwork.user[11] totalWrites 277
scalar DatabaseNetwork.user[11] averageWaitTime 0.10299315099307
scalar DatabaseNetwork.user[11] accessesPerSecond 0.0526
par DatabaseNetwork.user[12] typename "\"progetto.User\""
par DatabaseNetwork.user[12] userId 12
par DatabaseNetwork.user[12] lambda 0.05
par DatabaseNetwork.user[12] readProbability 0.5
par DatabaseNetwork.user[12] numTables 20
par DatabaseNetwork.user[12] tableDistribution "\"lognormal\""
par DatabaseNetwork.user[12] serviceTime 0.1s
attr unit s
par DatabaseNetwork.user[12] lognormalM 1.5
par DatabaseNetwork.user[12] lognormalS 1
scalar DatabaseNetwork.user[12] totalAccesses 511
scalar DatabaseNetwork.user[12] totalReads 264
scalar DatabaseNetwork.user[12] totalWrites 247
scalar DatabaseNetwork.user[12] averageWaitTime 0.1043623713479
scalar DatabaseNetwork.user[12] accessesPerSecond 0.0511
par DatabaseNetwork.user[13] typename "\"progetto.User\""
par DatabaseNetwork.user[13] userId 13
par DatabaseNetwork.user[13] lambda 0.05
par DatabaseNetwork.user[13] readProbability 0.5
par DatabaseNetwork.user[13] numTables 20
par DatabaseNetwork.user[13] tableDistribution "\"lognormal\""
par DatabaseNetwork.user[13] serviceTime 0.1s
attr unit s
par DatabaseNetwork.user[13] lognormalM 1.5
par DatabaseNetwork.user[13] lognormalS 1
scalar DatabaseNetwork.user[13] totalAccesses 485
scalar DatabaseNetwork.user[13] totalReads 280
scalar DatabaseNetwork.user[13] totalWrites 205
scalar DatabaseNetwork.user[13] averageWaitTime 0.10219028002459
scalar DatabaseNetwork.user[13] accessesPerSecond 0.0485
par DatabaseNetwork.user[14] typename "\"progetto.User\""
par DatabaseNetwork.user[14] userId 14
par DatabaseNetwork.user[14] lambda 0.05
par DatabaseNetwork.user[14] readProbability 0.5
par DatabaseNetwork.user[14] numTables 20
par DatabaseNetwork.user[14] tableDistribution "\"lognormal\""
par DatabaseNetwork.user[14] serviceTime 0.1s
attr unit s
par DatabaseNetwork.user[14] lognormalM 1.5
par DatabaseNetwork.user[14] lognormalS 1
scalar DatabaseNetwork.user[14] totalAccesses 542
scalar DatabaseNetwork.user[14] totalReads 291
scalar DatabaseNetwork.user[14] totalWrites 251
scalar DatabaseNetwork.user[14] averageWaitTime 0.10493047378719
scalar DatabaseNetwork.user[14] accessesPerSecond 0.0542
par DatabaseNetwork.user[15] typename "\"progetto.User\""
par DatabaseNetwork.user[15] userId 15
par DatabaseNetwork.user[15] lambda 0.05
par DatabaseNetwork.user[15] readProbability 0.5
par DatabaseNetwork.user[15] numTables 20
par DatabaseNetwork.user[15] tableDistribution "\"lognormal\""
par DatabaseNetwork.user[15] serviceTime 0.1s
attr unit s
par DatabaseNetwork.user[15] lognormalM 1.5
par DatabaseNetwork.user[15] lognormalS 1
scalar DatabaseNetwork.user[15] totalAccesses 531
scalar DatabaseNetwork.user[15] totalReads 274
scalar DatabaseNetwork.user[15] totalWrites 257
scalar DatabaseNetwork.user[15] averageWaitTime 0.10407818802858
scalar DatabaseNetwork.user[15] accessesPerSecond 0.0531
par DatabaseNetwork.user[16] typename "\"progetto.User\""
par DatabaseNetwork.user[16] userId 16
par DatabaseNetwork.user[16] lambda 0.05
par DatabaseNetwork.user[16] readProbability 0.5
par DatabaseNetwork.user[16] numTables 20
par DatabaseNetwork.user[16] tableDistribution "\"lognormal\""
par DatabaseNetwork.user[16] serviceTime 0.1s
attr unit s
par DatabaseNetwork.user[16] lognormalM 1.5
par DatabaseNetwork.user[16] lognormalS 1
scalar DatabaseNetwork.user[16] totalAccesses 493
scalar DatabaseNetwork.user[16] totalReads 265
scalar DatabaseNetwork.user[16] totalWrites 228
scalar DatabaseNetwork.user[16] averageWaitTime 0.10233307108701
scalar DatabaseNetwork.user[16] accessesPerSecond 0.0493
par DatabaseNetwork.user[17] typename "\"progetto.User\""
par DatabaseNetwork.user[17] userId 17
par DatabaseNetwork.user[17] lambda 0.05
par DatabaseNetwork.user[17] readProbability 0.5
par DatabaseNetwork.user[17] numTables 20
par DatabaseNetwork.user[17] tableDistribution "\"lognormal\""
par DatabaseNetwork.user[17] serviceTime 0.1s
attr unit s
par DatabaseNetwork.user[17] lognormalM 1.5
par DatabaseNetwork.user[17] lognormalS 1
scalar DatabaseNetwork.user[17] totalAccesses 512
scalar DatabaseNetwork.user[17] totalReads 264
scalar DatabaseNetwork.user[17] totalWrites 248
scalar DatabaseNetwork.user[17] averageWaitTime 0.10354275656516
scalar DatabaseNetwork.user[17] accessesPerSecond 0.0512
par DatabaseNetwork.user[18] typename "\"progetto.User\""
par DatabaseNetwork.user[18] userId 18
par DatabaseNetwork.user[18] lambda 0.05
par DatabaseNetwork.user[18] readProbability 0.5
par DatabaseNetwork.user[18] numTables 20
par DatabaseNetwork.user[18] tableDistribution "\"lognormal\""
par DatabaseNetwork.user[18] serviceTime 0.1s
attr unit s
par DatabaseNetwork.user[18] lognormalM 1.5
par DatabaseNetwork.user[18] lognormalS 1
scalar DatabaseNetwork.user[18] totalAccesses 490
scalar DatabaseNetwork.user[18] totalReads 244
scalar DatabaseNetwork.user[18] totalWrites 246
scalar DatabaseNetwork.user[18] averageWaitTime 0.1046960193895
scalar DatabaseNetwork.user[18] accessesPerSecond 0.049
par DatabaseNetwork.user[19] typename "\"progetto.User\""
par DatabaseNetwork.user[19] userId 19
par DatabaseNetwork.user[19] lambda 0.05
par DatabaseNetwork.user[19] readProbability 0.5
par DatabaseNetwork.user[19] numTables 20
par DatabaseNetwork.user[19] tableDistribution "\"lognormal\""
par DatabaseNetwork.user[19] serviceTime 0.1s
attr unit s
par DatabaseNetwork.user[19] lognormalM 1.5
par DatabaseNetwork.user[19] lognormalS 1
scalar DatabaseNetwork.user[19] totalAccesses 499
scalar DatabaseNetwork.user[19] totalReads 246
scalar DatabaseNetwork.user[19] totalWrites 253
scalar DatabaseNetwork.user[19] averageWaitTime 0.10270789997519
scalar DatabaseNetwork.user[19] accessesPerSecond 0.0499
par DatabaseNetwork.user[20] typename "\"progetto.User\""
par DatabaseNetwork.user[20] userId 20
par DatabaseNetwork.user[20] lambda 0.05
par DatabaseNetwork.user[20] readProbability 0.5
par DatabaseNetwork.user[20] numTables 20
par DatabaseNetwork.user[20] tableDistribution "\"lognormal\""
par DatabaseNetwork.user[20] serviceTime 0.1s
attr unit s
par DatabaseNetwork.user[20] lognormalM 1.5
par DatabaseNetwork.user[20] lognormalS 1
scalar DatabaseNetwork.user[20] totalAccesses 505
scalar DatabaseNetwork.user[20] totalReads 269
scalar DatabaseNetwork.user[20] totalWrites 236
scalar DatabaseNetwork.user[20] averageWaitTime 0.10507887460013
scalar DatabaseNetwork.user[20] accessesPerSecond 0.0505
par DatabaseNetwork.user[21] typename "\"progetto.User\""
par DatabaseNetwork.user[21] userId 21
par DatabaseNetwork.user[21] lambda 0.05
par DatabaseNetwork.user[21] readProbability 0.5
par DatabaseNetwork.user[21] numTables 20
par DatabaseNetwork.user[21] tableDistribution "\"lognormal\""
par DatabaseNetwork.user[21] serviceTime 0.1s
attr unit s
par DatabaseNetwork.user[21] lognormalM 1.5
par DatabaseNetwork.user[21] lognormalS 1
scalar DatabaseNetwork.user[21] totalAccesses 505
scalar DatabaseNetwork.user[21] totalReads 248
scalar DatabaseNetwork.user[21] totalWrites 257
scalar DatabaseNetwork.user[21] averageWaitTime 0.10369146473361
scalar DatabaseNetwork.user[21] accessesPerSecond 0.0505
par DatabaseNetwork.user[22] typename "\"progetto.User\""
par DatabaseNetwork.user[22] userId 22
par DatabaseNetwork.user[22] lambda 0.05
par DatabaseNetwork.user[22] readProbability 0.5
par DatabaseNetwork.user[22] numTables 20
par DatabaseNetwork.user[22] tableDistribution "\"lognormal\""
par DatabaseNetwork.user[22] serviceTime 0.1s
attr unit s
par DatabaseNetwork.user[22] lognormalM 1.5
par DatabaseNetwork.user[22] lognormalS 1
scalar DatabaseNetwork.user[22] totalAccesses 535
scalar DatabaseNetwork.user[22] totalReads 261
scalar DatabaseNetwork.user[22] totalWrites 274
scalar DatabaseNetwork.user[22] averageWaitTime 0.10266040197507
scalar DatabaseNetwork.user[22] accessesPerSecond 0.0535
par DatabaseNetwork.user[23] typename "\"progetto.User\""
par DatabaseNetwork.user[23] userId 23
par DatabaseNetwork.user[23] lambda 0.05
par DatabaseNetwork.user[23] readProbability 0.5
par DatabaseNetwork.user[23] numTables 20
par DatabaseNetwork.user[23] tableDistribution "\"lognormal\""
par DatabaseNetwork.user[23] serviceTime 0.1s
attr unit s
par DatabaseNetwork.user[23] lognormalM 1.5
par DatabaseNetwork.user[23] lognormalS 1
scalar DatabaseNetwork.user[23] totalAccesses 500
scalar DatabaseNetwork.user[23] totalReads 243
scalar DatabaseNetwork.user[23] totalWrites 257
scalar DatabaseNetwork.user[23] averageWaitTime 0.10336531475277
scalar DatabaseNetwork.user[23] accessesPerSecond 0.05
par DatabaseNetwork.user[24] typename "\"progetto.User\""
par DatabaseNetwork.user[24] userId 24
par DatabaseNetwork.user[24] lambda 0.05
par DatabaseNetwork.user[24] readProbability 0.5
par DatabaseNetwork.user[24] numTables 20
par DatabaseNetwork.user[24] tableDistribution "\"lognormal\""
par DatabaseNetwork.user[24] serviceTime 0.1s
attr unit s
par DatabaseNetwork.user[24] lognormalM 1.5
par DatabaseNetwork.user[24] lognormalS 1
scalar DatabaseNetwork.user[24] totalAccesses 533
scalar DatabaseNetwork.user[24] totalReads 261
scalar DatabaseNetwork.user[24] totalWrites 272
scalar DatabaseNetwork.user[24] averageWaitTime 0.10423106588022
scalar DatabaseNetwork.user[24] accessesPerSecond 0.0533
par DatabaseNetwork.user[25] typename "\"progetto.User\""
par DatabaseNetwork.user[25] userId 25
par DatabaseNetwork.user[25] lambda 0.05
par DatabaseNetwork.user[25] readProbability 0.5
par DatabaseNetwork.user[25] numTables 20
par DatabaseNetwork.user[25] tableDistribution "\"lognormal\""
par DatabaseNetwork.user[25] serviceTime 0.1s
attr unit s
par DatabaseNetwork.user[25] lognormalM 1.5
par DatabaseNetwork.user[25] lognormalS 1
scalar DatabaseNetwork.user[25] totalAccesses 526
scalar DatabaseNetwork.user[25] totalReads 262
scalar DatabaseNetwork.user[25] totalWrites 264
scalar DatabaseNetwork.user[25] averageWaitTime 0.10319679490881
scalar DatabaseNetwork.user[25] accessesPerSecond 0.0526
par DatabaseNetwork.user[26] typename "\"progetto.User\""
par DatabaseNetwork.user[26] userId 26
par DatabaseNetwork.user[26] lambda 0.05
par DatabaseNetwork.user[26] readProbability 0.5
par DatabaseNetwork.user[26] numTables 20
par DatabaseNetwork.user[26] tableDistribution "\"lognormal\""
par DatabaseNetwork.user[26] serviceTime 0.1s
attr unit s
par DatabaseNetwork.user[26] lognormalM 1.5
par DatabaseNetwork.user[26] lognormalS 1
scalar DatabaseNetwork.user[26] totalAccesses 456
scalar DatabaseNetwork.user[26] totalReads 237
scalar DatabaseNetwork.user[26] totalWrites 219
scalar DatabaseNetwork.user[26] averageWaitTime 0.10382841975853
scalar DatabaseNetwork.user[26] accessesPerSecond 0.0456
par DatabaseNetwork.user[27] typename "\"progetto.User\""
par DatabaseNetwork.user[27] userId 27
par DatabaseNetwork.user[27] lambda 0.05
par DatabaseNetwork.user[27] readProbability 0.5
par DatabaseNetwork.user[27] numTables 20
par DatabaseNetwork.user[27] tableDistribution "\"lognormal\""
par DatabaseNetwork.user[27] serviceTime 0.1s
attr unit s
par DatabaseNetwork.user[27] lognormalM 1.5
par DatabaseNetwork.user[27] lognormalS 1
scalar DatabaseNetwork.user[27] totalAccesses 517
scalar DatabaseNetwork.user[27] totalReads 268
scalar DatabaseNetwork.user[27] totalWrites 249
scalar DatabaseNetwork.user[27] averageWaitTime 0.10434358821755
scalar DatabaseNetwork.user[27] accessesPerSecond 0.0517
par DatabaseNetwork.user[28] typename "\"progetto.User\""
par DatabaseNetwork.user[28] userId 28
par DatabaseNetwork.user[28] lambda 0.05
par DatabaseNetwork.user[28] readProbability 0.5
par DatabaseNetwork.user[28] numTables 20
par DatabaseNetwork.user[28] tableDistribution "\"lognormal\""
par DatabaseNetwork.user[28] serviceTime 0.1s
attr unit s
par DatabaseNetwork.user[28] lognormalM 1.5
par DatabaseNetwork.user[28] lognormalS 1
scalar DatabaseNetwork.user[28] totalAccesses 521
scalar DatabaseNetwork.user[28] totalReads 256
scalar DatabaseNetwork.user[28] totalWrites 265
scalar DatabaseNetwork.user[28] averageWaitTime 0.10465497146739
scalar DatabaseNetwork.user[28] accessesPerSecond 0.0521
par DatabaseNetwork.user[29] typename "\"progetto.User\""
par DatabaseNetwork.user[29] userId 29
par DatabaseNetwork.user[29] lambda 0.05
par DatabaseNetwork.user[29] readProbability 0.5
par DatabaseNetwork.user[29] numTables 20
par DatabaseNetwork.user[29] tableDistribution "\"lognormal\""
par DatabaseNetwork.user[29] serviceTime 0.1s
attr unit s
par DatabaseNetwork.user[29] lognormalM 1.5
par DatabaseNetwork.user[29] lognormalS 1
scalar DatabaseNetwork.user[29] totalAccesses 489
scalar DatabaseNetwork.user[29] totalReads 247
scalar DatabaseNetwork.user[29] totalWrites 242
scalar DatabaseNetwork.user[29] averageWaitTime 0.10432639507733
scalar DatabaseNetwork.user[29] accessesPerSecond 0.0489
par DatabaseNetwork.user[30] typename "\"progetto.User\""
par DatabaseNetwork.user[30] userId 30
par DatabaseNetwork.user[30] lambda 0.05
par DatabaseNetwork.user[30] readProbability 0.5
par DatabaseNetwork.user[30] numTables 20
par DatabaseNetwork.user[30] tableDistribution "\"lognormal\""
par DatabaseNetwork.user[30] serviceTime 0.1s
attr unit s
par DatabaseNetwork.user[30] lognormalM 1.5
par DatabaseNetwork.user[30] lognormalS 1
scalar DatabaseNetwork.user[30] totalAccesses 511
scalar DatabaseNetwork.user[30] totalReads 243
scalar DatabaseNetwork.user[30] totalWrites 268
scalar DatabaseNetwork.user[30] averageWaitTime 0.10371483240287
scalar DatabaseNetwork.user[30] accessesPerSecond 0.0511
par DatabaseNetwork.user[31] typename "\"progetto.User\""
par DatabaseNetwork.user[31] userId 31
par DatabaseNetwork.user[31] lambda 0.05
par DatabaseNetwork.user[31] readProbability 0.5
par DatabaseNetwork.user[31] numTables 20
par DatabaseNetwork.user[31] tableDistribution "\"lognormal\""
par DatabaseNetwork.user[31] serviceTime 0.1s
attr unit s
par DatabaseNetwork.user[31] lognormalM 1.5
par DatabaseNetwork.user[31] lognormalS 1
scalar DatabaseNetwork.user[31] totalAccesses 517
scalar DatabaseNetwork.user[31] totalReads 276
scalar DatabaseNetwork.user[31] totalWrites 241
scalar DatabaseNetwork.user[31] averageWaitTime 0.10300960287633
scalar DatabaseNetwork.user[31] accessesPerSecond 0.0517
par DatabaseNetwork.user[32] typename "\"progetto.User\""
par DatabaseNetwork.user[32] userId 32
par DatabaseNetwork.user[32] lambda 0.05
par DatabaseNetwork.user[32] readProbability 0.5
par DatabaseNetwork.user[32] numTables 20
par DatabaseNetwork.user[32] tableDistribution "\"lognormal\""
par DatabaseNetwork.user[32] serviceTime 0.1s
attr unit s
par DatabaseNetwork.user[32] lognormalM 1.5
par DatabaseNetwork.user[32] lognormalS 1
scalar DatabaseNetwork.user[32] totalAccesses 477
scalar DatabaseNetwork.user[32] totalReads 231
scalar DatabaseNetwork.user[32] totalWrites 246
scalar DatabaseNetwork.user[32] averageWaitTime 0.10210228883723
scalar DatabaseNetwork.user[32] accessesPerSecond 0.0477
par DatabaseNetwork.user[33] typename "\"progetto.User\""
par DatabaseNetwork.user[33] userId 33
par DatabaseNetwork.user[33] lambda 0.05
par DatabaseNetwork.user[33] readProbability 0.5
par DatabaseNetwork.user[33] numTables 20
par DatabaseNetwork.user[33] tableDistribution "\"lognormal\""
par DatabaseNetwork.user[33] serviceTime 0.1s
attr unit s
par DatabaseNetwork.user[33] lognormalM 1.5
par DatabaseNetwork.user[33] lognormalS 1
scalar DatabaseNetwork.user[33] totalAccesses 533
scalar DatabaseNetwork.user[33] totalReads 256
scalar DatabaseNetwork.user[33] totalWrites 277
scalar DatabaseNetwork.user[33] averageWaitTime 0.10338217495497
scalar DatabaseNetwork.user[33] accessesPerSecond 0.0533
par DatabaseNetwork.user[34] typename "\"progetto.User\""
par DatabaseNetwork.user[34] userId 34
par DatabaseNetwork.user[34] lambda 0.05
par DatabaseNetwork.user[34] readProbability 0.5
par DatabaseNetwork.user[34] numTables 20
par DatabaseNetwork.user[34] tableDistribution "\"lognormal\""
par DatabaseNetwork.user[34] serviceTime 0.1s
attr unit s
par DatabaseNetwork.user[34] lognormalM 1.5
par DatabaseNetwork.user[34] lognormalS 1
scalar DatabaseNetwork.user[34] totalAccesses 474
scalar DatabaseNetwork.user[34] totalReads 243
scalar DatabaseNetwork.user[34] totalWrites 231
scalar DatabaseNetwork.user[34] averageWaitTime 0.10222919327331
scalar DatabaseNetwork.user[34] accessesPerSecond 0.0474
par DatabaseNetwork.user[35] typename "\"progetto.User\""
par DatabaseNetwork.user[35] userId 35
par DatabaseNetwork.user[35] lambda 0.05
par DatabaseNetwork.user[35] readProbability 0.5
par DatabaseNetwork.user[35] numTables 20
par DatabaseNetwork.user[35] tableDistribution "\"lognormal\""
par DatabaseNetwork.user[35] serviceTime 0.1s
attr unit s
par DatabaseNetwork.user[35] lognormalM 1.5
par DatabaseNetwork.user[35] lognormalS 1
scalar DatabaseNetwork.user[35] totalAccesses 488
scalar DatabaseNetwork.user[35] totalReads 249
scalar DatabaseNetwork.user[35] totalWrites 239
scalar DatabaseNetwork.user[35] averageWaitTime 0.10376082620269
scalar DatabaseNetwork.user[35] accessesPerSecond 0.0488
par DatabaseNetwork.user[36] typename "\"progetto.User\""
par DatabaseNetwork.user[36] userId 36
par DatabaseNetwork.user[36] lambda 0.05
par DatabaseNetwork.user[36] readProbability 0.5
par DatabaseNetwork.user[36] numTables 20
par DatabaseNetwork.user[36] tableDistribution "\"lognormal\""
par DatabaseNetwork.user[36] serviceTime 0.1s
attr unit s
par DatabaseNetwork.user[36] lognormalM 1.5
par DatabaseNetwork.user[36] lognormalS 1
scalar DatabaseNetwork.user[36] totalAccesses 514
scalar DatabaseNetwork.user[36] totalReads 257
scalar DatabaseNetwork.user[36] totalWrites 257
scalar DatabaseNetwork.user[36] averageWaitTime 0.10326185166856
scalar DatabaseNetwork.user[36] accessesPerSecond 0.0514
par DatabaseNetwork.user[37] typename "\"progetto.User\""
par DatabaseNetwork.user[37] userId 37
par DatabaseNetwork.user[37] lambda 0.05
par DatabaseNetwork.user[37] readProbability 0.5
par DatabaseNetwork.user[37] numTables 20
par DatabaseNetwork.user[37] tableDistribution "\"lognormal\""
par DatabaseNetwork.user[37] serviceTime 0.1s
attr unit s
par DatabaseNetwork.user[37] lognormalM 1.5
par DatabaseNetwork.user[37] lognormalS 1
scalar DatabaseNetwork.user[37] totalAccesses 496
scalar DatabaseNetwork.user[37] totalReads 248
scalar DatabaseNetwork.user[37] totalWrites 248
scalar DatabaseNetwork.user[37] averageWaitTime 0.10427323631631
scalar DatabaseNetwork.user[37] accessesPerSecond 0.0496
par DatabaseNetwork.user[38] typename "\"progetto.User\""
par DatabaseNetwork.user[38] userId 38
par DatabaseNetwork.user[38] lambda 0.05
par DatabaseNetwork.user[38] readProbability 0.5
par DatabaseNetwork.user[38] numTables 20
par DatabaseNetwork.user[38] tableDistribution "\"lognormal\""
par DatabaseNetwork.user[38] serviceTime 0.1s
attr unit s
par DatabaseNetwork.user[38] lognormalM 1.5
par DatabaseNetwork.user[38] lognormalS 1
scalar DatabaseNetwork.user[38] totalAccesses 521
scalar DatabaseNetwork.user[38] totalReads 251
scalar DatabaseNetwork.user[38] totalWrites 270
scalar DatabaseNetwork.user[38] averageWaitTime 0.10316471424092
scalar DatabaseNetwork.user[38] accessesPerSecond 0.0521
par DatabaseNetwork.user[39] typename "\"progetto.User\""
par DatabaseNetwork.user[39] userId 39
par DatabaseNetwork.user[39] lambda 0.05
par DatabaseNetwork.user[39] readProbability 0.5
par DatabaseNetwork.user[39] numTables 20
par DatabaseNetwork.user[39] tableDistribution "\"lognormal\""
par DatabaseNetwork.user[39] serviceTime 0.1s
attr unit s
par DatabaseNetwork.user[39] lognormalM 1.5
par DatabaseNetwork.user[39] lognormalS 1
scalar DatabaseNetwork.user[39] totalAccesses 484
scalar DatabaseNetwork.user[39] totalReads 226
scalar DatabaseNetwork.user[39] totalWrites 258
scalar DatabaseNetwork.user[39] averageWaitTime 0.10450363142327
scalar DatabaseNetwork.user[39] accessesPerSecond 0.0484
par DatabaseNetwork.user[40] typename "\"progetto.User\""
par DatabaseNetwork.user[40] userId 40
par DatabaseNetwork.user[40] lambda 0.05
par DatabaseNetwork.user[40] readProbability 0.5
par DatabaseNetwork.user[40] numTables 20
par DatabaseNetwork.user[40] tableDistribution "\"lognormal\""
par DatabaseNetwork.user[40] serviceTime 0.1s
attr unit s
par DatabaseNetwork.user[40] lognormalM 1.5
par DatabaseNetwork.user[40] lognormalS 1
scalar DatabaseNetwork.user[40] totalAccesses 491
scalar DatabaseNetwork.user[40] totalReads 235
scalar DatabaseNetwork.user[40] totalWrites 256
scalar DatabaseNetwork.user[40] averageWaitTime 0.10414679340071
scalar DatabaseNetwork.user[40] accessesPerSecond 0.0491
par DatabaseNetwork.user[41] typename "\"progetto.User\""
par DatabaseNetwork.user[41] userId 41
par DatabaseNetwork.user[41] lambda 0.05
par DatabaseNetwork.user[41] readProbability 0.5
par DatabaseNetwork.user[41] numTables 20
par DatabaseNetwork.user[41] tableDistribution "\"lognormal\""
par DatabaseNetwork.user[41] serviceTime 0.1s
attr unit s
par DatabaseNetwork.user[41] lognormalM 1.5
par DatabaseNetwork.user[41] lognormalS 1
scalar DatabaseNetwork.user[41] totalAccesses 480
scalar DatabaseNetwork.user[41] totalReads 240
scalar DatabaseNetwork.user[41] totalWrites 240
scalar DatabaseNetwork.user[41] averageWaitTime 0.10198964805531
scalar DatabaseNetwork.user[41] accessesPerSecond 0.048
par DatabaseNetwork.user[42] typename "\"progetto.User\""
par DatabaseNetwork.user[42] userId 42
par DatabaseNetwork.user[42] lambda 0.05
par DatabaseNetwork.user[42] readProbability 0.5
par DatabaseNetwork.user[42] numTables 20
par DatabaseNetwork.user[42] tableDistribution "\"lognormal\""
par DatabaseNetwork.user[42] serviceTime 0.1s
attr unit s
par DatabaseNetwork.user[42] lognormalM 1.5
par DatabaseNetwork.user[42] lognormalS 1
scalar DatabaseNetwork.user[42] totalAccesses 500
scalar DatabaseNetwork.user[42] totalReads 251
scalar DatabaseNetwork.user[42] totalWrites 249
scalar DatabaseNetwork.user[42] averageWaitTime 0.10357157603365
scalar DatabaseNetwork.user[42] accessesPerSecond 0.05
par DatabaseNetwork.user[43] typename "\"progetto.User\""
par DatabaseNetwork.user[43] userId 43
par DatabaseNetwork.user[43] lambda 0.05
par DatabaseNetwork.user[43] readProbability 0.5
par DatabaseNetwork.user[43] numTables 20
par DatabaseNetwork.user[43] tableDistribution "\"lognormal\""
par DatabaseNetwork.user[43] serviceTime 0.1s
attr unit s
par DatabaseNetwork.user[43] lognormalM 1.5
par DatabaseNetwork.user[43] lognormalS 1
scalar DatabaseNetwork.user[43] totalAccesses 535
scalar DatabaseNetwork.user[43] totalReads 267
scalar DatabaseNetwork.user[43] totalWrites 268
scalar DatabaseNetwork.user[43] averageWaitTime 0.10348871262848
scalar DatabaseNetwork.user[43] accessesPerSecond 0.0535
par DatabaseNetwork.user[44] typename "\"progetto.User\""
par DatabaseNetwork.user[44] userId 44
par DatabaseNetwork.user[44] lambda 0.05
par DatabaseNetwork.user[44] readProbability 0.5
par DatabaseNetwork.user[44] numTables 20
par DatabaseNetwork.user[44] tableDistribution "\"lognormal\""
par DatabaseNetwork.user[44] serviceTime 0.1s
attr unit s
par DatabaseNetwork.user[44] lognormalM 1.5
par DatabaseNetwork.user[44] lognormalS 1
scalar DatabaseNetwork.user[44] totalAccesses 504
scalar DatabaseNetwork.user[44] totalReads 259
scalar DatabaseNetwork.user[44] totalWrites 245
scalar DatabaseNetwork.user[44] averageWaitTime 0.10324814376281
scalar DatabaseNetwork.user[44] accessesPerSecond 0.0504
par DatabaseNetwork.user[45] typename "\"progetto.User\""
par DatabaseNetwork.user[45] userId 45
par DatabaseNetwork.user[45] lambda 0.05
par DatabaseNetwork.user[45] readProbability 0.5
par DatabaseNetwork.user[45] numTables 20
par DatabaseNetwork.user[45] tableDistribution "\"lognormal\""
par DatabaseNetwork.user[45] serviceTime 0.1s
attr unit s
par DatabaseNetwork.user[45] lognormalM 1.5
par DatabaseNetwork.user[45] lognormalS 1
scalar DatabaseNetwork.user[45] totalAccesses 500
scalar DatabaseNetwork.user[45] totalReads 227
scalar DatabaseNetwork.user[45] totalWrites 273
scalar DatabaseNetwork.user[45] averageWaitTime 0.10396570848014
scalar DatabaseNetwork.user[45] accessesPerSecond 0.05
par DatabaseNetwork.user[46] typename "\"progetto.User\""
par DatabaseNetwork.user[46] userId 46
par DatabaseNetwork.user[46] lambda 0.05
par DatabaseNetwork.user[46] readProbability 0.5
par DatabaseNetwork.user[46] numTables 20
par DatabaseNetwork.user[46] tableDistribution "\"lognormal\""
par DatabaseNetwork.user[46] serviceTime 0.1s
attr unit s
par DatabaseNetwork.user[46] lognormalM 1.5
par DatabaseNetwork.user[46] lognormalS 1
scalar DatabaseNetwork.user[46] totalAccesses 527
scalar DatabaseNetwork.user[46] totalReads 275
scalar DatabaseNetwork.user[46] totalWrites 252
scalar DatabaseNetwork.user[46] averageWaitTime 0.10376849474306
scalar DatabaseNetwork.user[46] accessesPerSecond 0.0527
par DatabaseNetwork.user[47] typename "\"progetto.User\""
par DatabaseNetwork.user[47] userId 47
par DatabaseNetwork.user[47] lambda 0.05
par DatabaseNetwork.user[47] readProbability 0.5
par DatabaseNetwork.user[47] numTables 20
par DatabaseNetwork.user[47] tableDistribution "\"lognormal\""
par DatabaseNetwork.user[47] serviceTime 0.1s
attr unit s
par DatabaseNetwork.user[47] lognormalM 1.5
par DatabaseNetwork.user[47] lognormalS 1
scalar DatabaseNetwork.user[47] totalAccesses 487
scalar DatabaseNetwork.user[47] totalReads 241
scalar DatabaseNetwork.user[47] totalWrites 246
scalar DatabaseNetwork.user[47] averageWaitTime 0.10335860654295
scalar DatabaseNetwork.user[47] accessesPerSecond 0.0487
par DatabaseNetwork.user[48] typename "\"progetto.User\""
par DatabaseNetwork.user[48] userId 48
par DatabaseNetwork.user[48] lambda 0.05
par DatabaseNetwork.user[48] readProbability 0.5
par DatabaseNetwork.user[48] numTables 20
par DatabaseNetwork.user[48] tableDistribution "\"lognormal\""
par DatabaseNetwork.user[48] serviceTime 0.1s
attr unit s
par DatabaseNetwork.user[48] lognormalM 1.5
par DatabaseNetwork.user[48] lognormalS 1
scalar DatabaseNetwork.user[48] totalAccesses 460
scalar DatabaseNetwork.user[48] totalReads 238
scalar DatabaseNetwork.user[48] totalWrites 222
scalar DatabaseNetwork.user[48] averageWaitTime 0.10412607394966
scalar DatabaseNetwork.user[48] accessesPerSecond 0.046
par DatabaseNetwork.user[49] typename "\"progetto.User\""
par DatabaseNetwork.user[49] userId 49
par DatabaseNetwork.user[49] lambda 0.05
par DatabaseNetwork.user[49] readProbability 0.5
par DatabaseNetwork.user[49] numTables 20
par DatabaseNetwork.user[49] tableDistribution "\"lognormal\""
par DatabaseNetwork.user[49] serviceTime 0.1s
attr unit s
par DatabaseNetwork.user[49] lognormalM 1.5
par DatabaseNetwork.user[49] lognormalS 1
scalar DatabaseNetwork.user[49] totalAccesses 482
scalar DatabaseNetwork.user[49] totalReads 239
scalar DatabaseNetwork.user[49] totalWrites 243
scalar DatabaseNetwork.user[49] averageWaitTime 0.10399407405296
scalar DatabaseNetwork.user[49] accessesPerSecond 0.0482
par DatabaseNetwork.user[50] typename "\"progetto.User\""
par DatabaseNetwork.user[50] userId 50
par DatabaseNetwork.user[50] lambda 0.05
par DatabaseNetwork.user[50] readProbability 0.5
par DatabaseNetwork.user[50] numTables 20
par DatabaseNetwork.user[50] tableDistribution "\"lognormal\""
par DatabaseNetwork.user[50] serviceTime 0.1s
attr unit s
par DatabaseNetwork.user[50] lognormalM 1.5
par DatabaseNetwork.user[50] lognormalS 1
scalar DatabaseNetwork.user[50] totalAccesses 458
scalar DatabaseNetwork.user[50] totalReads 222
scalar DatabaseNetwork.user[50] totalWrites 236
scalar DatabaseNetwork.user[50] averageWaitTime 0.10373433712111
scalar DatabaseNetwork.user[50] accessesPerSecond 0.0458
par DatabaseNetwork.user[51] typename "\"progetto.User\""
par DatabaseNetwork.user[51] userId 51
par DatabaseNetwork.user[51] lambda 0.05
par DatabaseNetwork.user[51] readProbability 0.5
par DatabaseNetwork.user[51] numTables 20
par DatabaseNetwork.user[51] tableDistribution "\"lognormal\""
par DatabaseNetwork.user[51] serviceTime 0.1s
attr unit s
par DatabaseNetwork.user[51] lognormalM 1.5
par DatabaseNetwork.user[51] lognormalS 1
scalar DatabaseNetwork.user[51] totalAccesses 473
scalar DatabaseNetwork.user[51] totalReads 234
scalar DatabaseNetwork.user[51] totalWrites 239
scalar DatabaseNetwork.user[51] averageWaitTime 0.10309972277957
scalar DatabaseNetwork.user[51] accessesPerSecond 0.0473
par DatabaseNetwork.user[52] typename "\"progetto.User\""
par DatabaseNetwork.user[52] userId 52
par DatabaseNetwork.user[52] lambda 0.05
par DatabaseNetwork.user[52] readProbability 0.5
par DatabaseNetwork.user[52] numTables 20
par DatabaseNetwork.user[52] tableDistribution "\"lognormal\""
par DatabaseNetwork.user[52] serviceTime 0.1s
attr unit s
par DatabaseNetwork.user[52] lognormalM 1.5
par DatabaseNetwork.user[52] lognormalS 1
scalar DatabaseNetwork.user[52] totalAccesses 502
scalar DatabaseNetwork.user[52] totalReads 239
scalar DatabaseNetwork.user[52] totalWrites 263
scalar DatabaseNetwork.user[52] averageWaitTime 0.10327264071916
scalar DatabaseNetwork.user[52] accessesPerSecond 0.0502
par DatabaseNetwork.user[53] typename "\"progetto.User\""
par DatabaseNetwork.user[53] userId 53
par DatabaseNetwork.user[53] lambda 0.05
par DatabaseNetwork.user[53] readProbability 0.5
par DatabaseNetwork.user[53] numTables 20
par DatabaseNetwork.user[53] tableDistribution "\"lognormal\""
par DatabaseNetwork.user[53] serviceTime 0.1s
attr unit s
par DatabaseNetwork.user[53] lognormalM 1.5
par DatabaseNetwork.user[53] lognormalS 1
scalar DatabaseNetwork.user[53] totalAccesses 480
scalar DatabaseNetwork.user[53] totalReads 233
scalar DatabaseNetwork.user[53] totalWrites 247
scalar DatabaseNetwork.user[53] averageWaitTime 0.10499250638031
scalar DatabaseNetwork.user[53] accessesPerSecond 0.048
par DatabaseNetwork.user[54] typename "\"progetto.User\""
par DatabaseNetwork.user[54] userId 54
par DatabaseNetwork.user[54] lambda 0.05
par DatabaseNetwork.user[54] readProbability 0.5
par DatabaseNetwork.user[54] numTables 20
par DatabaseNetwork.user[54] tableDistribution "\"lognormal\""
par DatabaseNetwork.user[54] serviceTime 0.1s
attr unit s
par DatabaseNetwork.user[54] lognormalM 1.5
par DatabaseNetwork.user[54] lognormalS 1
scalar DatabaseNetwork.user[54] totalAccesses 524
scalar DatabaseNetwork.user[54] totalReads 273
scalar DatabaseNetwork.user[54] totalWrites 251
scalar DatabaseNetwork.user[54] averageWaitTime 0.10416350013383
scalar DatabaseNetwork.user[54] accessesPerSecond 0.0524
par DatabaseNetwork.user[55] typename "\"progetto.User\""
par DatabaseNetwork.user[55] userId 55
par DatabaseNetwork.user[55] lambda 0.05
par DatabaseNetwork.user[55] readProbability 0.5
par DatabaseNetwork.user[55] numTables 20
par DatabaseNetwork.user[55] tableDistribution "\"lognormal\""
par DatabaseNetwork.user[55] serviceTime 0.1s
attr unit s
par DatabaseNetwork.user[55] lognormalM 1.5
par DatabaseNetwork.user[55] lognormalS 1
scalar DatabaseNetwork.user[55] totalAccesses 520
scalar DatabaseNetwork.user[55] totalReads 260
scalar DatabaseNetwork.user[55] totalWrites 260
scalar DatabaseNetwork.user[55] averageWaitTime 0.10316016010145
scalar DatabaseNetwork.user[55] accessesPerSecond 0.052
par DatabaseNetwork.user[56] typename "\"progetto.User\""
par DatabaseNetwork.user[56] userId 56
par DatabaseNetwork.user[56] lambda 0.05
par DatabaseNetwork.user[56] readProbability 0.5
par DatabaseNetwork.user[56] numTables 20
par DatabaseNetwork.user[56] tableDistribution "\"lognormal\""
par DatabaseNetwork.user[56] serviceTime 0.1s
attr unit s
par DatabaseNetwork.user[56] lognormalM 1.5
par DatabaseNetwork.user[56] lognormalS 1
scalar DatabaseNetwork.user[56] totalAccesses 517
scalar DatabaseNetwork.user[56] totalReads 242
scalar DatabaseNetwork.user[56] totalWrites 275
scalar DatabaseNetwork.user[56] averageWaitTime 0.10291264239071
scalar DatabaseNetwork.user[56] accessesPerSecond 0.0517
par DatabaseNetwork.user[57] typename "\"progetto.User\""
par DatabaseNetwork.user[57] userId 57
par DatabaseNetwork.user[57] lambda 0.05
par DatabaseNetwork.user[57] readProbability 0.5
par DatabaseNetwork.user[57] numTables 20
par DatabaseNetwork.user[57] tableDistribution "\"lognormal\""
par DatabaseNetwork.user[57] serviceTime 0.1s
attr unit s
par DatabaseNetwork.user[57] lognormalM 1.5
par DatabaseNetwork.user[57] lognormalS 1
scalar DatabaseNetwork.user[57] totalAccesses 486
scalar DatabaseNetwork.user[57] totalReads 230
scalar DatabaseNetwork.user[57] totalWrites 256
scalar DatabaseNetwork.user[57] averageWaitTime 0.10365046213693
scalar DatabaseNetwork.user[57] accessesPerSecond 0.0486
par DatabaseNetwork.user[58] typename "\"progetto.User\""
par DatabaseNetwork.user[58] userId 58
par DatabaseNetwork.user[58] lambda 0.05
par DatabaseNetwork.user[58] readProbability 0.5
par DatabaseNetwork.user[58] numTables 20
par DatabaseNetwork.user[58] tableDistribution "\"lognormal\""
par DatabaseNetwork.user[58] serviceTime 0.1s
attr unit s
par DatabaseNetwork.user[58] lognormalM 1.5
par DatabaseNetwork.user[58] lognormalS 1
scalar DatabaseNetwork.user[58] totalAccesses 494
scalar DatabaseNetwork.user[58] totalReads 241
scalar DatabaseNetwork.user[58] totalWrites 253
scalar DatabaseNetwork.user[58] averageWaitTime 0.10155733283213
scalar DatabaseNetwork.user[58] accessesPerSecond 0.0494
par DatabaseNetwork.user[59] typename "\"progetto.User\""
par DatabaseNetwork.user[59] userId 59
par DatabaseNetwork.user[59] lambda 0.05
par DatabaseNetwork.user[59] readProbability 0.5
par DatabaseNetwork.user[59] numTables 20
par DatabaseNetwork.user[59] tableDistribution "\"lognormal\""
par DatabaseNetwork.user[59] serviceTime 0.1s
attr unit s
par DatabaseNetwork.user[59] lognormalM 1.5
par DatabaseNetwork.user[59] lognormalS 1
scalar DatabaseNetwork.user[59] totalAccesses 491
scalar DatabaseNetwork.user[59] totalReads 227
scalar DatabaseNetwork.user[59] totalWrites 264
scalar DatabaseNetwork.user[59] averageWaitTime 0.10336656606941
scalar DatabaseNetwork.user[59] accessesPerSecond 0.0491
par DatabaseNetwork.user[60] typename "\"progetto.User\""
par DatabaseNetwork.user[60] userId 60
par DatabaseNetwork.user[60] lambda 0.05
par DatabaseNetwork.user[60] readProbability 0.5
par DatabaseNetwork.user[60] numTables 20
par DatabaseNetwork.user[60] tableDistribution "\"lognormal\""
par DatabaseNetwork.user[60] serviceTime 0.1s
attr unit s
par DatabaseNetwork.user[60] lognormalM 1.5
par DatabaseNetwork.user[60] lognormalS 1
scalar DatabaseNetwork.user[60] totalAccesses 533
scalar DatabaseNetwork.user[60] totalReads 281
scalar DatabaseNetwork.user[60] totalWrites 252
scalar DatabaseNetwork.user[60] averageWaitTime 0.10416153505882
scalar DatabaseNetwork.user[60] accessesPerSecond 0.0533
par DatabaseNetwork.user[61] typename "\"progetto.User\""
par DatabaseNetwork.user[61] userId 61
par DatabaseNetwork.user[61] lambda 0.05
par DatabaseNetwork.user[61] readProbability 0.5
par DatabaseNetwork.user[61] numTables 20
par DatabaseNetwork.user[61] tableDistribution "\"lognormal\""
par DatabaseNetwork.user[61] serviceTime 0.1s
attr unit s
par DatabaseNetwork.user[61] lognormalM 1.5
par DatabaseNetwork.user[61] lognormalS 1
scalar DatabaseNetwork.user[61] totalAccesses 546
scalar DatabaseNetwork.user[61] totalReads 266
scalar DatabaseNetwork.user[61] totalWrites 280
scalar DatabaseNetwork.user[61] averageWaitTime 0.10395135332891
scalar DatabaseNetwork.user[61] accessesPerSecond 0.0546
par DatabaseNetwork.user[62] typename "\"progetto.User\""
par DatabaseNetwork.user[62] userId 62
par DatabaseNetwork.user[62] lambda 0.05
par DatabaseNetwork.user[62] readProbability 0.5
par DatabaseNetwork.user[62] numTables 20
par DatabaseNetwork.user[62] tableDistribution "\"lognormal\""
par DatabaseNetwork.user[62] serviceTime 0.1s
attr unit s
par DatabaseNetwork.user[62] lognormalM 1.5
par DatabaseNetwork.user[62] lognormalS 1
scalar DatabaseNetwork.user[62] totalAccesses 516
scalar DatabaseNetwork.user[62] totalReads 255
scalar DatabaseNetwork.user[62] totalWrites 261
scalar DatabaseNetwork.user[62] averageWaitTime 0.1029305926874
scalar DatabaseNetwork.user[62] accessesPerSecond 0.0516
par DatabaseNetwork.user[63] typename "\"progetto.User\""
par DatabaseNetwork.user[63] userId 63
par DatabaseNetwork.user[63] lambda 0.05
par DatabaseNetwork.user[63] readProbability 0.5
par DatabaseNetwork.user[63] numTables 20
par DatabaseNetwork.user[63] tableDistribution "\"lognormal\""
par DatabaseNetwork.user[63] serviceTime 0.1s
attr unit s
par DatabaseNetwork.user[63] lognormalM 1.5
par DatabaseNetwork.user[63] lognormalS 1
scalar DatabaseNetwork.user[63] totalAccesses 497
scalar DatabaseNetwork.user[63] totalReads 251
scalar DatabaseNetwork.user[63] totalWrites 246
scalar DatabaseNetwork.user[63] averageWaitTime 0.10365698854865
scalar DatabaseNetwork.user[63] accessesPerSecond 0.0497
par DatabaseNetwork.user[64] typename "\"progetto.User\""
par DatabaseNetwork.user[64] userId 64
par DatabaseNetwork.user[64] lambda 0.05
par DatabaseNetwork.user[64] readProbability 0.5
par DatabaseNetwork.user[64] numTables 20
par DatabaseNetwork.user[64] tableDistribution "\"lognormal\""
par DatabaseNetwork.user[64] serviceTime 0.1s
attr unit s
par DatabaseNetwork.user[64] lognormalM 1.5
par DatabaseNetwork.user[64] lognormalS 1
scalar DatabaseNetwork.user[64] totalAccesses 519
scalar DatabaseNetwork.user[64] totalReads 280
scalar DatabaseNetwork.user[64] totalWrites 239
scalar DatabaseNetwork.user[64] averageWaitTime 0.10265312107358
scalar DatabaseNetwork.user[64] accessesPerSecond 0.0519
par DatabaseNetwork.user[65] typename "\"progetto.User\""
par DatabaseNetwork.user[65] userId 65
par DatabaseNetwork.user[65] lambda 0.05
par DatabaseNetwork.user[65] readProbability 0.5
par DatabaseNetwork.user[65] numTables 20
par DatabaseNetwork.user[65] tableDistribution "\"lognormal\""
par DatabaseNetwork.user[65] serviceTime 0.1s
attr unit s
par DatabaseNetwork.user[65] lognormalM 1.5
par DatabaseNetwork.user[65] lognormalS 1
scalar DatabaseNetwork.user[65] totalAccesses 516
scalar DatabaseNetwork.user[65] totalReads 245
scalar DatabaseNetwork.user[65] totalWrites 271
scalar DatabaseNetwork.user[65] averageWaitTime 0.10331611099278
scalar DatabaseNetwork.user[65] accessesPerSecond 0.0516
par DatabaseNetwork.user[66] typename "\"progetto.User\""
par DatabaseNetwork.user[66] userId 66
par DatabaseNetwork.user[66] lambda 0.05
par DatabaseNetwork.user[66] readProbability 0.5
par DatabaseNetwork.user[66] numTables 20
par DatabaseNetwork.user[66] tableDistribution "\"lognormal\""
par DatabaseNetwork.user[66] serviceTime 0.1s
attr unit s
par DatabaseNetwork.user[66] lognormalM 1.5
par DatabaseNetwork.user[66] lognormalS 1
scalar DatabaseNetwork.user[66] totalAccesses 490
scalar DatabaseNetwork.user[66] totalReads 239
scalar DatabaseNetwork.user[66] totalWrites 251
scalar DatabaseNetwork.user[66] averageWaitTime 0.10338538200125
scalar DatabaseNetwork.user[66] accessesPerSecond 0.049
par DatabaseNetwork.user[67] typename "\"progetto.User\""
par DatabaseNetwork.user[67] userId 67
par DatabaseNetwork.user[67] lambda 0.05
par DatabaseNetwork.user[67] readProbability 0.5
par DatabaseNetwork.user[67] numTables 20
par DatabaseNetwork.user[67] tableDistribution "\"lognormal\""
par DatabaseNetwork.user[67] serviceTime 0.1s
attr unit s
par DatabaseNetwork.user[67] lognormalM 1.5
par DatabaseNetwork.user[67] lognormalS 1
scalar DatabaseNetwork.user[67] totalAccesses 481
scalar DatabaseNetwork.user[67] totalReads 241
scalar DatabaseNetwork.user[67] totalWrites 240
scalar DatabaseNetwork.user[67] averageWaitTime 0.1041843291789
scalar DatabaseNetwork.user[67] accessesPerSecond 0.0481
par DatabaseNetwork.user[68] typename "\"progetto.User\""
par DatabaseNetwork.user[68] userId 68
par DatabaseNetwork.user[68] lambda 0.05
par DatabaseNetwork.user[68] readProbability 0.5
par DatabaseNetwork.user[68] numTables 20
par DatabaseNetwork.user[68] tableDistribution "\"lognormal\""
par DatabaseNetwork.user[68] serviceTime 0.1s
attr unit s
par DatabaseNetwork.user[68] lognormalM 1.5
par DatabaseNetwork.user[68] lognormalS 1
scalar DatabaseNetwork.user[68] totalAccesses 521
scalar DatabaseNetwork.user[68] totalReads 259
scalar DatabaseNetwork.user[68] totalWrites 262
scalar DatabaseNetwork.user[68] averageWaitTime 0.10367370448157
scalar DatabaseNetwork.user[68] accessesPerSecond 0.0521
par DatabaseNetwork.user[69] typename "\"progetto.User\""
par DatabaseNetwork.user[69] userId 69
par DatabaseNetwork.user[69] lambda 0.05
par DatabaseNetwork.user[69] readProbability 0.5
par DatabaseNetwork.user[69] numTables 20
par DatabaseNetwork.user[69] tableDistribution "\"lognormal\""
par DatabaseNetwork.user[69] serviceTime 0.1s
attr unit s
par DatabaseNetwork.user[69] lognormalM 1.5
par DatabaseNetwork.user[69] lognormalS 1
scalar DatabaseNetwork.user[69] totalAccesses 496
scalar DatabaseNetwork.user[69] totalReads 258
scalar DatabaseNetwork.user[69] totalWrites 238
scalar DatabaseNetwork.user[69] averageWaitTime 0.10301269606276
scalar DatabaseNetwork.user[69] accessesPerSecond 0.0496
par DatabaseNetwork.user[70] typename "\"progetto.User\""
par DatabaseNetwork.user[70] userId 70
par DatabaseNetwork.user[70] lambda 0.05
par DatabaseNetwork.user[70] readProbability 0.5
par DatabaseNetwork.user[70] numTables 20
par DatabaseNetwork.user[70] tableDistribution "\"lognormal\""
par DatabaseNetwork.user[70] serviceTime 0.1s
attr unit s
par DatabaseNetwork.user[70] lognormalM 1.5
par DatabaseNetwork.user[70] lognormalS 1
scalar DatabaseNetwork.user[70] totalAccesses 480
scalar DatabaseNetwork.user[70] totalReads 235
scalar DatabaseNetwork.user[70] totalWrites 245
scalar DatabaseNetwork.user[70] averageWaitTime 0.10377815103455
scalar DatabaseNetwork.user[70] accessesPerSecond 0.048
par DatabaseNetwork.user[71] typename "\"progetto.User\""
par DatabaseNetwork.user[71] userId 71
par DatabaseNetwork.user[71] lambda 0.05
par DatabaseNetwork.user[71] readProbability 0.5
par DatabaseNetwork.user[71] numTables 20
par DatabaseNetwork.user[71] tableDistribution "\"lognormal\""
par DatabaseNetwork.user[71] serviceTime 0.1s
attr unit s
par DatabaseNetwork.user[71] lognormalM 1.5
par DatabaseNetwork.user[71] lognormalS 1
scalar DatabaseNetwork.user[71] totalAccesses 531
scalar DatabaseNetwork.user[71] totalReads 251
scalar DatabaseNetwork.user[71] totalWrites 280
scalar DatabaseNetwork.user[71] averageWaitTime 0.10423065266169
scalar DatabaseNetwork.user[71] accessesPerSecond 0.0531
par DatabaseNetwork.user[72] typename "\"progetto.User\""
par DatabaseNetwork.user[72] userId 72
par DatabaseNetwork.user[72] lambda 0.05
par DatabaseNetwork.user[72] readProbability 0.5
par DatabaseNetwork.user[72] numTables 20
par DatabaseNetwork.user[72] tableDistribution "\"lognormal\""
par DatabaseNetwork.user[72] serviceTime 0.1s
attr unit s
par DatabaseNetwork.user[72] lognormalM 1.5
par DatabaseNetwork.user[72] lognormalS 1
scalar DatabaseNetwork.user[72] totalAccesses 529
scalar DatabaseNetwork.user[72] totalReads 283
scalar DatabaseNetwork.user[72] totalWrites 246
scalar DatabaseNetwork.user[72] averageWaitTime 0.10324394495613
scalar DatabaseNetwork.user[72] accessesPerSecond 0.0529
par DatabaseNetwork.user[73] typename "\"progetto.User\""
par DatabaseNetwork.user[73] userId 73
par DatabaseNetwork.user[73] lambda 0.05
par DatabaseNetwork.user[73] readProbability 0.5
par DatabaseNetwork.user[73] numTables 20
par DatabaseNetwork.user[73] tableDistribution "\"lognormal\""
par DatabaseNetwork.user[73] serviceTime 0.1s
attr unit s
par DatabaseNetwork.user[73] lognormalM 1.5
par DatabaseNetwork.user[73] lognormalS 1
scalar DatabaseNetwork.user[73] totalAccesses 479
scalar DatabaseNetwork.user[73] totalReads 246
scalar DatabaseNetwork.user[73] totalWrites 233
scalar DatabaseNetwork.user[73] averageWaitTime 0.10278007260554
scalar DatabaseNetwork.user[73] accessesPerSecond 0.0479
par DatabaseNetwork.user[74] typename "\"progetto.User\""
par DatabaseNetwork.user[74] userId 74
par DatabaseNetwork.user[74] lambda 0.05
par DatabaseNetwork.user[74] readProbability 0.5
par DatabaseNetwork.user[74] numTables 20
par DatabaseNetwork.user[74] tableDistribution "\"lognormal\""
par DatabaseNetwork.user[74] serviceTime 0.1s
attr unit s
par DatabaseNetwork.user[74] lognormalM 1.5
par DatabaseNetwork.user[74] lognormalS 1
scalar DatabaseNetwork.user[74] totalAccesses 524
scalar DatabaseNetwork.user[74] totalReads 266
scalar DatabaseNetwork.user[74] totalWrites 258
scalar DatabaseNetwork.user[74] averageWaitTime 0.10392327754744
scalar DatabaseNetwork.user[74] accessesPerSecond 0.0524
par DatabaseNetwork.user[75] typename "\"progetto.User\""
par DatabaseNetwork.user[75] userId 75
par DatabaseNetwork.user[75] lambda 0.05
par DatabaseNetwork.user[75] readProbability 0.5
par DatabaseNetwork.user[75] numTables 20
par DatabaseNetwork.user[75] tableDistribution "\"lognormal\""
par DatabaseNetwork.user[75] serviceTime 0.1s
attr unit s
par DatabaseNetwork.user[75] lognormalM 1.5
par DatabaseNetwork.user[75] lognormalS 1
scalar DatabaseNetwork.user[75] totalAccesses 546
scalar DatabaseNetwork.user[75] totalReads 286
scalar DatabaseNetwork.user[75] totalWrites 260
scalar DatabaseNetwork.user[75] averageWaitTime 0.10340498927262
scalar DatabaseNetwork.user[75] accessesPerSecond 0.0546
par DatabaseNetwork.user[76] typename "\"progetto.User\""
par DatabaseNetwork.user[76] userId 76
par DatabaseNetwork.user[76] lambda 0.05
par DatabaseNetwork.user[76] readProbability 0.5
par DatabaseNetwork.user[76] numTables 20
par DatabaseNetwork.user[76] tableDistribution "\"lognormal\""
par DatabaseNetwork.user[76] serviceTime 0.1s
attr unit s
par DatabaseNetwork.user[76] lognormalM 1.5
par DatabaseNetwork.user[76] lognormalS 1
scalar DatabaseNetwork.user[76] totalAccesses 541
scalar DatabaseNetwork.user[76] totalReads 248
scalar DatabaseNetwork.user[76] totalWrites 293
scalar DatabaseNetwork.user[76] averageWaitTime 0.10404258578216
scalar DatabaseNetwork.user[76] accessesPerSecond 0.0541
par DatabaseNetwork.user[77] typename "\"progetto.User\""
par DatabaseNetwork.user[77] userId 77
par DatabaseNetwork.user[77] lambda 0.05
par DatabaseNetwork.user[77] readProbability 0.5
par DatabaseNetwork.user[77] numTables 20
par DatabaseNetwork.user[77] tableDistribution "\"lognormal\""
par DatabaseNetwork.user[77] serviceTime 0.1s
attr unit s
par DatabaseNetwork.user[77] lognormalM 1.5
par DatabaseNetwork.user[77] lognormalS 1
scalar DatabaseNetwork.user[77] totalAccesses 517
scalar DatabaseNetwork.user[77] totalReads 233
scalar DatabaseNetwork.user[77] totalWrites 284
scalar DatabaseNetwork.user[77] averageWaitTime 0.10322846768443
scalar DatabaseNetwork.user[77] accessesPerSecond 0.0517
par DatabaseNetwork.user[78] typename "\"progetto.User\""
par DatabaseNetwork.user[78] userId 78
par DatabaseNetwork.user[78] lambda 0.05
par DatabaseNetwork.user[78] readProbability 0.5
par DatabaseNetwork.user[78] numTables 20
par DatabaseNetwork.user[78] tableDistribution "\"lognormal\""
par DatabaseNetwork.user[78] serviceTime 0.1s
attr unit s
par DatabaseNetwork.user[78] lognormalM 1.5
par DatabaseNetwork.user[78] lognormalS 1
scalar DatabaseNetwork.user[78] totalAccesses 525
scalar DatabaseNetwork.user[78] totalReads 266
scalar DatabaseNetwork.user[78] totalWrites 259
scalar DatabaseNetwork.user[78] averageWaitTime 0.10501674620552
scalar DatabaseNetwork.user[78] accessesPerSecond 0.0525
par DatabaseNetwork.user[79] typename "\"progetto.User\""
par DatabaseNetwork.user[79] userId 79
par DatabaseNetwork.user[79] lambda 0.05
par DatabaseNetwork.user[79] readProbability 0.5
par DatabaseNetwork.user[79] numTables 20
par DatabaseNetwork.user[79] tableDistribution "\"lognormal\""
par DatabaseNetwork.user[79] serviceTime 0.1s
attr unit s
par DatabaseNetwork.user[79] lognormalM 1.5
par DatabaseNetwork.user[79] lognormalS 1
scalar DatabaseNetwork.user[79] totalAccesses 510
scalar DatabaseNetwork.user[79] totalReads 263
scalar DatabaseNetwork.user[79] totalWrites 247
scalar DatabaseNetwork.user[79] averageWaitTime 0.10299272276844
scalar DatabaseNetwork.user[79] accessesPerSecond 0.051
par DatabaseNetwork.user[80] typename "\"progetto.User\""
par DatabaseNetwork.user[80] userId 80
par DatabaseNetwork.user[80] lambda 0.05
par DatabaseNetwork.user[80] readProbability 0.5
par DatabaseNetwork.user[80] numTables 20
par DatabaseNetwork.user[80] tableDistribution "\"lognormal\""
par DatabaseNetwork.user[80] serviceTime 0.1s
attr unit s
par DatabaseNetwork.user[80] lognormalM 1.5
par DatabaseNetwork.user[80] lognormalS 1
scalar DatabaseNetwork.user[80] totalAccesses 552
scalar DatabaseNetwork.user[80] totalReads 264
scalar DatabaseNetwork.user[80] totalWrites 288
scalar DatabaseNetwork.user[80] averageWaitTime 0.10280982965764
scalar DatabaseNetwork.user[80] accessesPerSecond 0.0552
par DatabaseNetwork.user[81] typename "\"progetto.User\""
par DatabaseNetwork.user[81] userId 81
par DatabaseNetwork.user[81] lambda 0.05
par DatabaseNetwork.user[81] readProbability 0.5
par DatabaseNetwork.user[81] numTables 20
par DatabaseNetwork.user[81] tableDistribution "\"lognormal\""
par DatabaseNetwork.user[81] serviceTime 0.1s
attr unit s
par DatabaseNetwork.user[81] lognormalM 1.5
par DatabaseNetwork.user[81] lognormalS 1
scalar DatabaseNetwork.user[81] totalAccesses 479
scalar DatabaseNetwork.user[81] totalReads 237
scalar DatabaseNetwork.user[81] totalWrites 242
scalar DatabaseNetwork.user[81] averageWaitTime 0.10399886573772
scalar DatabaseNetwork.user[81] accessesPerSecond 0.0479
par DatabaseNetwork.user[82] typename "\"progetto.User\""
par DatabaseNetwork.user[82] userId 82
par DatabaseNetwork.user[82] lambda 0.05
par DatabaseNetwork.user[82] readProbability 0.5
par DatabaseNetwork.user[82] numTables 20
par DatabaseNetwork.user[82] tableDistribution "\"lognormal\""
par DatabaseNetwork.user[82] serviceTime 0.1s
attr unit s
par DatabaseNetwork.user[82] lognormalM 1.5
par DatabaseNetwork.user[82] lognormalS 1
scalar DatabaseNetwork.user[82] totalAccesses 536
scalar DatabaseNetwork.user[82] totalReads 277
scalar DatabaseNetwork.user[82] totalWrites 259
scalar DatabaseNetwork.user[82] averageWaitTime 0.10500320244305
scalar DatabaseNetwork.user[82] accessesPerSecond 0.0536
par DatabaseNetwork.user[83] typename "\"progetto.User\""
par DatabaseNetwork.user[83] userId 83
par DatabaseNetwork.user[83] lambda 0.05
par DatabaseNetwork.user[83] readProbability 0.5
par DatabaseNetwork.user[83] numTables 20
par DatabaseNetwork.user[83] tableDistribution "\"lognormal\""
par DatabaseNetwork.user[83] serviceTime 0.1s
attr unit s
par DatabaseNetwork.user[83] lognormalM 1.5
par DatabaseNetwork.user[83] lognormalS 1
scalar DatabaseNetwork.user[83] totalAccesses 494
scalar DatabaseNetwork.user[83] totalReads 255
scalar DatabaseNetwork.user[83] totalWrites 239
scalar DatabaseNetwork.user[83] averageWaitTime 0.10264670210155
scalar DatabaseNetwork.user[83] accessesPerSecond 0.0494
par DatabaseNetwork.user[84] typename "\"progetto.User\""
par DatabaseNetwork.user[84] userId 84
par DatabaseNetwork.user[84] lambda 0.05
par DatabaseNetwork.user[84] readProbability 0.5
par DatabaseNetwork.user[84] numTables 20
par DatabaseNetwork.user[84] tableDistribution "\"lognormal\""
par DatabaseNetwork.user[84] serviceTime 0.1s
attr unit s
par DatabaseNetwork.user[84] lognormalM 1.5
par DatabaseNetwork.user[84] lognormalS 1
scalar DatabaseNetwork.user[84] totalAccesses 476
scalar DatabaseNetwork.user[84] totalReads 235
scalar DatabaseNetwork.user[84] totalWrites 241
scalar DatabaseNetwork.user[84] averageWaitTime 0.104113618666
scalar DatabaseNetwork.user[84] accessesPerSecond 0.0476
par DatabaseNetwork.user[85] typename "\"progetto.User\""
par DatabaseNetwork.user[85] userId 85
par DatabaseNetwork.user[85] lambda 0.05
par DatabaseNetwork.user[85] readProbability 0.5
par DatabaseNetwork.user[85] numTables 20
par DatabaseNetwork.user[85] tableDistribution "\"lognormal\""
par DatabaseNetwork.user[85] serviceTime 0.1s
attr unit s
par DatabaseNetwork.user[85] lognormalM 1.5
par DatabaseNetwork.user[85] lognormalS 1
scalar DatabaseNetwork.user[85] totalAccesses 490
scalar DatabaseNetwork.user[85] totalReads 220
scalar DatabaseNetwork.user[85] totalWrites 270
scalar DatabaseNetwork.user[85] averageWaitTime 0.1034783701013
scalar DatabaseNetwork.user[85] accessesPerSecond 0.049
par DatabaseNetwork.user[86] typename "\"progetto.User\""
par DatabaseNetwork.user[86] userId 86
par DatabaseNetwork.user[86] lambda 0.05
par DatabaseNetwork.user[86] readProbability 0.5
par DatabaseNetwork.user[86] numTables 20
par DatabaseNetwork.user[86] tableDistribution "\"lognormal\""
par DatabaseNetwork.user[86] serviceTime 0.1s
attr unit s
par DatabaseNetwork.user[86] lognormalM 1.5
par DatabaseNetwork.user[86] lognormalS 1
scalar DatabaseNetwork.user[86] totalAccesses 526
scalar DatabaseNetwork.user[86] totalReads 286
scalar DatabaseNetwork.user[86] totalWrites 240
scalar DatabaseNetwork.user[86] averageWaitTime 0.10371251046403
scalar DatabaseNetwork.user[86] accessesPerSecond 0.0526
par DatabaseNetwork.user[87] typename "\"progetto.User\""
par DatabaseNetwork.user[87] userId 87
par DatabaseNetwork.user[87] lambda 0.05
par DatabaseNetwork.user[87] readProbability 0.5
par DatabaseNetwork.user[87] numTables 20
par DatabaseNetwork.user[87] tableDistribution "\"lognormal\""
par DatabaseNetwork.user[87] serviceTime 0.1s
attr unit s
par DatabaseNetwork.user[87] lognormalM 1.5
par DatabaseNetwork.user[87] lognormalS 1
scalar DatabaseNetwork.user[87] totalAccesses 518
scalar DatabaseNetwork.user[87] totalReads 263
scalar DatabaseNetwork.user[87] totalWrites 255
scalar DatabaseNetwork.user[87] averageWaitTime 0.10414590729721
scalar DatabaseNetwork.user[87] accessesPerSecond 0.0518
par DatabaseNetwork.user[88] typename "\"progetto.User\""
par DatabaseNetwork.user[88] userId 88
par DatabaseNetwork.user[88] lambda 0.05
par DatabaseNetwork.user[88] readProbability 0.5
par DatabaseNetwork.user[88] numTables 20
par DatabaseNetwork.user[88] tableDistribution "\"lognormal\""
par DatabaseNetwork.user[88] serviceTime 0.1s
attr unit s
par DatabaseNetwork.user[88] lognormalM 1.5
par DatabaseNetwork.user[88] lognormalS 1
scalar DatabaseNetwork.user[88] totalAccesses 503
scalar DatabaseNetwork.user[88] totalReads 255
scalar DatabaseNetwork.user[88] totalWrites 248
scalar DatabaseNetwork.user[88] averageWaitTime 0.10332046208775
scalar DatabaseNetwork.user[88] accessesPerSecond 0.0503
par DatabaseNetwork.user[89] typename "\"progetto.User\""
par DatabaseNetwork.user[89] userId 89
par DatabaseNetwork.user[89] lambda 0.05
par DatabaseNetwork.user[89] readProbability 0.5
par DatabaseNetwork.user[89] numTables 20
par DatabaseNetwork.user[89] tableDistribution "\"lognormal\""
par DatabaseNetwork.user[89] serviceTime 0.1s
attr unit s
par DatabaseNetwork.user[89] lognormalM 1.5
par DatabaseNetwork.user[89] lognormalS 1
scalar DatabaseNetwork.user[89] totalAccesses 492
scalar DatabaseNetwork.user[89] totalReads 245
scalar DatabaseNetwork.user[89] totalWrites 247
scalar DatabaseNetwork.user[89] averageWaitTime 0.10434198732673
scalar DatabaseNetwork.user[89] accessesPerSecond 0.0492
par DatabaseNetwork.user[90] typename "\"progetto.User\""
par DatabaseNetwork.user[90] userId 90
par DatabaseNetwork.user[90] lambda 0.05
par DatabaseNetwork.user[90] readProbability 0.5
par DatabaseNetwork.user[90] numTables 20
par DatabaseNetwork.user[90] tableDistribution "\"lognormal\""
par DatabaseNetwork.user[90] serviceTime 0.1s
attr unit s
par DatabaseNetwork.user[90] lognormalM 1.5
par DatabaseNetwork.user[90] lognormalS 1
scalar DatabaseNetwork.user[90] totalAccesses 498
scalar DatabaseNetwork.user[90] totalReads 229
scalar DatabaseNetwork.user[90] totalWrites 269
scalar DatabaseNetwork.user[90] averageWaitTime 0.10245316875546
scalar DatabaseNetwork.user[90] accessesPerSecond 0.0498
par DatabaseNetwork.user[91] typename "\"progetto.User\""
par DatabaseNetwork.user[91] userId 91
par DatabaseNetwork.user[91] lambda 0.05
par DatabaseNetwork.user[91] readProbability 0.5
par DatabaseNetwork.user[91] numTables 20
par DatabaseNetwork.user[91] tableDistribution "\"lognormal\""
par DatabaseNetwork.user[91] serviceTime 0.1s
attr unit s
par DatabaseNetwork.user[91] lognormalM 1.5
par DatabaseNetwork.user[91] lognormalS 1
scalar DatabaseNetwork.user[91] totalAccesses 463
scalar DatabaseNetwork.user[91] totalReads 240
scalar DatabaseNetwork.user[91] totalWrites 223
scalar DatabaseNetwork.user[91] averageWaitTime 0.1038721481291
scalar DatabaseNetwork.user[91] accessesPerSecond 0.0463
par DatabaseNetwork.user[92] typename "\"progetto.User\""
par DatabaseNetwork.user[92] userId 92
par DatabaseNetwork.user[92] lambda 0.05
par DatabaseNetwork.user[92] readProbability 0.5
par DatabaseNetwork.user[92] numTables 20
par DatabaseNetwork.user[92] tableDistribution "\"lognormal\""
par DatabaseNetwork.user[92] serviceTime 0.1s
attr unit s
par DatabaseNetwork.user[92] lognormalM 1.5
par DatabaseNetwork.user[92] lognormalS 1
scalar DatabaseNetwork.user[92] totalAccesses 517
scalar DatabaseNetwork.user[92] totalReads 276
scalar DatabaseNetwork.user[92] totalWrites 241
scalar DatabaseNetwork.user[92] averageWaitTime 0.10278247321601
scalar DatabaseNetwork.user[92] accessesPerSecond 0.0517
par DatabaseNetwork.user[93] typename "\"progetto.User\""
par DatabaseNetwork.user[93] userId 93
par DatabaseNetwork.user[93] lambda 0.05
par DatabaseNetwork.user[93] readProbability 0.5
par DatabaseNetwork.user[93] numTables 20
par DatabaseNetwork.user[93] tableDistribution "\"lognormal\""
par DatabaseNetwork.user[93] serviceTime 0.1s
attr unit s
par DatabaseNetwork.user[93] lognormalM 1.5
par DatabaseNetwork.user[93] lognormalS 1
scalar DatabaseNetwork.user[93] totalAccesses 482
scalar DatabaseNetwork.user[93] totalReads 232
scalar DatabaseNetwork.user[93] totalWrites 250
scalar DatabaseNetwork.user[93] averageWaitTime 0.10248687737462
scalar DatabaseNetwork.user[93] accessesPerSecond 0.0482
par DatabaseNetwork.user[94] typename "\"progetto.User\""
par DatabaseNetwork.user[94] userId 94
par DatabaseNetwork.user[94] lambda 0.05
par DatabaseNetwork.user[94] readProbability 0.5
par DatabaseNetwork.user[94] numTables 20
par DatabaseNetwork.user[94] tableDistribution "\"lognormal\""
par DatabaseNetwork.user[94] serviceTime 0.1s
attr unit s
par DatabaseNetwork.user[94] lognormalM 1.5
par DatabaseNetwork.user[94] lognormalS 1
scalar DatabaseNetwork.user[94] totalAccesses 489
scalar DatabaseNetwork.user[94] totalReads 240
scalar DatabaseNetwork.user[94] totalWrites 249
scalar DatabaseNetwork.user[94] averageWaitTime 0.10495347294689
scalar DatabaseNetwork.user[94] accessesPerSecond 0.0489
par DatabaseNetwork.user[95] typename "\"progetto.User\""
par DatabaseNetwork.user[95] userId 95
par DatabaseNetwork.user[95] lambda 0.05
par DatabaseNetwork.user[95] readProbability 0.5
par DatabaseNetwork.user[95] numTables 20
par DatabaseNetwork.user[95] tableDistribution "\"lognormal\""
par DatabaseNetwork.user[95] serviceTime 0.1s
attr unit s
par DatabaseNetwork.user[95] lognormalM 1.5
par DatabaseNetwork.user[95] lognormalS 1
scalar DatabaseNetwork.user[95] totalAccesses 488
scalar DatabaseNetwork.user[95] totalReads 250
scalar DatabaseNetwork.user[95] totalWrites 238
scalar DatabaseNetwork.user[95] averageWaitTime 0.10340420637435
scalar DatabaseNetwork.user[95] accessesPerSecond 0.0488
par DatabaseNetwork.user[96] typename "\"progetto.User\""
par DatabaseNetwork.user[96] userId 96
par DatabaseNetwork.user[96] lambda 0.05
par DatabaseNetwork.user[96] readProbability 0.5
par DatabaseNetwork.user[96] numTables 20
par DatabaseNetwork.user[96] tableDistribution "\"lognormal\""
par DatabaseNetwork.user[96] serviceTime 0.1s
attr unit s
par DatabaseNetwork.user[96] lognormalM 1.5
par DatabaseNetwork.user[96] lognormalS 1
scalar DatabaseNetwork.user[96] totalAccesses 457
scalar DatabaseNetwork.user[96] totalReads 222
scalar DatabaseNetwork.user[96] totalWrites 235
scalar DatabaseNetwork.user[96] averageWaitTime 0.10442843179469
scalar DatabaseNetwork.user[96] accessesPerSecond 0.0457
par DatabaseNetwork.user[97] typename "\"progetto.User\""
par DatabaseNetwork.user[97] userId 97
par DatabaseNetwork.user[97] lambda 0.05
par DatabaseNetwork.user[97] readProbability 0.5
par DatabaseNetwork.user[97] numTables 20
par DatabaseNetwork.user[97] tableDistribution "\"lognormal\""
par DatabaseNetwork.user[97] serviceTime 0.1s
attr unit s
par DatabaseNetwork.user[97] lognormalM 1.5
par DatabaseNetwork.user[97] lognormalS 1
scalar DatabaseNetwork.user[97] totalAccesses 509
scalar DatabaseNetwork.user[97] totalReads 251
scalar DatabaseNetwork.user[97] totalWrites 258
scalar DatabaseNetwork.user[97] averageWaitTime 0.10295008257262
scalar DatabaseNetwork.user[97] accessesPerSecond 0.0509
par DatabaseNetwork.user[98] typename "\"progetto.User\""
par DatabaseNetwork.user[98] userId 98
par DatabaseNetwork.user[98] lambda 0.05
par DatabaseNetwork.user[98] readProbability 0.5
par DatabaseNetwork.user[98] numTables 20
par DatabaseNetwork.user[98] tableDistribution "\"lognormal\""
par DatabaseNetwork.user[98] serviceTime 0.1s
attr unit s
par DatabaseNetwork.user[98] lognormalM 1.5
par DatabaseNetwork.user[98] lognormalS 1
scalar DatabaseNetwork.user[98] totalAccesses 496
scalar DatabaseNetwork.user[98] totalReads 248
scalar DatabaseNetwork.user[98] totalWrites 248
scalar DatabaseNetwork.user[98] averageWaitTime 0.10410217837938
scalar DatabaseNetwork.user[98] accessesPerSecond 0.0496
par DatabaseNetwork.user[99] typename "\"progetto.User\""
par DatabaseNetwork.user[99] userId 99
par DatabaseNetwork.user[99] lambda 0.05
par DatabaseNetwork.user[99] readProbability 0.5
par DatabaseNetwork.user[99] numTables 20
par DatabaseNetwork.user[99] tableDistribution "\"lognormal\""
par DatabaseNetwork.user[99] serviceTime 0.1s
attr unit s
par DatabaseNetwork.user[99] lognormalM 1.5
par DatabaseNetwork.user[99] lognormalS 1
scalar DatabaseNetwork.user[99] totalAccesses 513
scalar DatabaseNetwork.user[99] totalReads 260
scalar DatabaseNetwork.user[99] totalWrites 253
scalar DatabaseNetwork.user[99] averageWaitTime 0.1049098756863
scalar DatabaseNetwork.user[99] accessesPerSecond 0.0513
par DatabaseNetwork.user[100] typename "\"progetto.User\""
par DatabaseNetwork.user[100] userId 100
par DatabaseNetwork.user[100] lambda 0.05
par DatabaseNetwork.user[100] readProbability 0.5
par DatabaseNetwork.user[100] numTables 20
par DatabaseNetwork.user[100] tableDistribution "\"lognormal\""
par DatabaseNetwork.user[100] serviceTime 0.1s
attr unit s
par DatabaseNetwork.user[100] lognormalM 1.5
par DatabaseNetwork.user[100] lognormalS 1
scalar DatabaseNetwork.user[100] totalAccesses 550
scalar DatabaseNetwork.user[100] totalReads 281
scalar DatabaseNetwork.user[100] totalWrites 269
scalar DatabaseNetwork.user[100] averageWaitTime 0.10382232295455
scalar DatabaseNetwork.user[100] accessesPerSecond 0.055
par DatabaseNetwork.user[101] typename "\"progetto.User\""
par DatabaseNetwork.user[101] userId 101
par DatabaseNetwork.user[101] lambda 0.05
par DatabaseNetwork.user[101] readProbability 0.5
par DatabaseNetwork.user[101] numTables 20
par DatabaseNetwork.user[101] tableDistribution "\"lognormal\""
par DatabaseNetwork.user[101] serviceTime 0.1s
attr unit s
par DatabaseNetwork.user[101] lognormalM 1.5
par DatabaseNetwork.user[101] lognormalS 1
scalar DatabaseNetwork.user[101] totalAccesses 485
scalar DatabaseNetwork.user[101] totalReads 227
scalar DatabaseNetwork.user[101] totalWrites 258
scalar DatabaseNetwork.user[101] averageWaitTime 0.10265879587279
scalar DatabaseNetwork.user[101] accessesPerSecond 0.0485
par DatabaseNetwork.user[102] typename "\"progetto.User\""
par DatabaseNetwork.user[102] userId 102
par DatabaseNetwork.user[102] lambda 0.05
par DatabaseNetwork.user[102] readProbability 0.5
par DatabaseNetwork.user[102] numTables 20
par DatabaseNetwork.user[102] tableDistribution "\"lognormal\""
par DatabaseNetwork.user[102] serviceTime 0.1s
attr unit s
par DatabaseNetwork.user[102] lognormalM 1.5
par DatabaseNetwork.user[102] lognormalS 1
scalar DatabaseNetwork.user[102] totalAccesses 508
scalar DatabaseNetwork.user[102] totalReads 260
scalar DatabaseNetwork.user[102] totalWrites 248
scalar DatabaseNetwork.user[102] averageWaitTime 0.10330145147449
scalar DatabaseNetwork.user[102] accessesPerSecond 0.0508
par DatabaseNetwork.user[103] typename "\"progetto.User\""
par DatabaseNetwork.user[103] userId 103
par DatabaseNetwork.user[103] lambda 0.05
par DatabaseNetwork.user[103] readProbability 0.5
par DatabaseNetwork.user[103] numTables 20
par DatabaseNetwork.user[103] tableDistribution "\"lognormal\""
par DatabaseNetwork.user[103] serviceTime 0.1s
attr unit s
par DatabaseNetwork.user[103] lognormalM 1.5
par DatabaseNetwork.user[103] lognormalS 1
scalar DatabaseNetwork.user[103] totalAccesses 519
scalar DatabaseNetwork.user[103] totalReads 262
scalar DatabaseNetwork.user[103] totalWrites 257
scalar DatabaseNetwork.user[103] averageWaitTime 0.10282148581409
scalar DatabaseNetwork.user[103] accessesPerSecond 0.0519
par DatabaseNetwork.user[104] typename "\"progetto.User\""
par DatabaseNetwork.user[104] userId 104
par DatabaseNetwork.user[104] lambda 0.05
par DatabaseNetwork.user[104] readProbability 0.5
par DatabaseNetwork.user[104] numTables 20
par DatabaseNetwork.user[104] tableDistribution "\"lognormal\""
par DatabaseNetwork.user[104] serviceTime 0.1s
attr unit s
par DatabaseNetwork.user[104] lognormalM 1.5
par DatabaseNetwork.user[104] lognormalS 1
scalar DatabaseNetwork.user[104] totalAccesses 524
scalar DatabaseNetwork.user[104] totalReads 263
scalar DatabaseNetwork.user[104] totalWrites 261
scalar DatabaseNetwork.user[104] averageWaitTime 0.10383641620901
scalar DatabaseNetwork.user[104] accessesPerSecond 0.0524
par DatabaseNetwork.user[105] typename "\"progetto.User\""
par DatabaseNetwork.user[105] userId 105
par DatabaseNetwork.user[105] lambda 0.05
par DatabaseNetwork.user[105] readProbability 0.5
par DatabaseNetwork.user[105] numTables 20
par DatabaseNetwork.user[105] tableDistribution "\"lognormal\""
par DatabaseNetwork.user[105] serviceTime 0.1s
attr unit s
par DatabaseNetwork.user[105] lognormalM 1.5
par DatabaseNetwork.user[105] lognormalS 1
scalar DatabaseNetwork.user[105] totalAccesses 491
scalar DatabaseNetwork.user[105] totalReads 253
scalar DatabaseNetwork.user[105] totalWrites 238
scalar DatabaseNetwork.user[105] averageWaitTime 0.10251599901734
scalar DatabaseNetwork.user[105] accessesPerSecond 0.0491
par DatabaseNetwork.user[106] typename "\"progetto.User\""
par DatabaseNetwork.user[106] userId 106
par DatabaseNetwork.user[106] lambda 0.05
par DatabaseNetwork.user[106] readProbability 0.5
par DatabaseNetwork.user[106] numTables 20
par DatabaseNetwork.user[106] tableDistribution "\"lognormal\""
par DatabaseNetwork.user[106] serviceTime 0.1s
attr unit s
par DatabaseNetwork.user[106] lognormalM 1.5
par DatabaseNetwork.user[106] lognormalS 1
scalar DatabaseNetwork.user[106] totalAccesses 488
scalar DatabaseNetwork.user[106] totalReads 228
scalar DatabaseNetwork.user[106] totalWrites 260
scalar DatabaseNetwork.user[106] averageWaitTime 0.10404754970779
scalar DatabaseNetwork.user[106] accessesPerSecond 0.0488
par DatabaseNetwork.user[107] typename "\"progetto.User\""
par DatabaseNetwork.user[107] userId 107
par DatabaseNetwork.user[107] lambda 0.05
par DatabaseNetwork.user[107] readProbability 0.5
par DatabaseNetwork.user[107] numTables 20
par DatabaseNetwork.user[107] tableDistribution "\"lognormal\""
par DatabaseNetwork.user[107] serviceTime 0.1s
attr unit s
par DatabaseNetwork.user[107] lognormalM 1.5
par DatabaseNetwork.user[107] lognormalS 1
scalar DatabaseNetwork.user[107] totalAccesses 506
scalar DatabaseNetwork.user[107] totalReads 243
scalar DatabaseNetwork.user[107] totalWrites 263
scalar DatabaseNetwork.user[107] averageWaitTime 0.10371014173176
scalar DatabaseNetwork.user[107] accessesPerSecond 0.0506
par DatabaseNetwork.user[108] typename "\"progetto.User\""
par DatabaseNetwork.user[108] userId 108
par DatabaseNetwork.user[108] lambda 0.05
par DatabaseNetwork.user[108] readProbability 0.5
par DatabaseNetwork.user[108] numTables 20
par DatabaseNetwork.user[108] tableDistribution "\"lognormal\""
par DatabaseNetwork.user[108] serviceTime 0.1s
attr unit s
par DatabaseNetwork.user[108] lognormalM 1.5
par DatabaseNetwork.user[108] lognormalS 1
scalar DatabaseNetwork.user[108] totalAccesses 505
scalar DatabaseNetwork.user[108] totalReads 274
scalar DatabaseNetwork.user[108] totalWrites 231
scalar DatabaseNetwork.user[108] averageWaitTime 0.10327606652082
scalar DatabaseNetwork.user[108] accessesPerSecond 0.0505
par DatabaseNetwork.user[109] typename "\"progetto.User\""
par DatabaseNetwork.user[109] userId 109
par DatabaseNetwork.user[109] lambda 0.05
par DatabaseNetwork.user[109] readProbability 0.5
par DatabaseNetwork.user[109] numTables 20
par DatabaseNetwork.user[109] tableDistribution "\"lognormal\""
par DatabaseNetwork.user[109] serviceTime 0.1s
attr unit s
par DatabaseNetwork.user[109] lognormalM 1.5
par DatabaseNetwork.user[109] lognormalS 1
scalar DatabaseNetwork.user[109] totalAccesses 483
scalar DatabaseNetwork.user[109] totalReads 247
scalar DatabaseNetwork.user[109] totalWrites 236
scalar DatabaseNetwork.user[109] averageWaitTime 0.10458287842398
scalar DatabaseNetwork.user[109] accessesPerSecond 0.0483
par DatabaseNetwork.user[110] typename "\"progetto.User\""
par DatabaseNetwork.user[110] userId 110
par DatabaseNetwork.user[110] lambda 0.05
par DatabaseNetwork.user[110] readProbability 0.5
par DatabaseNetwork.user[110] numTables 20
par DatabaseNetwork.user[110] tableDistribution "\"lognormal\""
par DatabaseNetwork.user[110] serviceTime 0.1s
attr unit s
par DatabaseNetwork.user[110] lognormalM 1.5
par DatabaseNetwork.user[110] lognormalS 1
scalar DatabaseNetwork.user[110] totalAccesses 476
scalar DatabaseNetwork.user[110] totalReads 243
scalar DatabaseNetwork.user[110] totalWrites 233
scalar DatabaseNetwork.user[110] averageWaitTime 0.1015248137371
scalar DatabaseNetwork.user[110] accessesPerSecond 0.0476
par DatabaseNetwork.user[111] typename "\"progetto.User\""
par DatabaseNetwork.user[111] userId 111
par DatabaseNetwork.user[111] lambda 0.05
par DatabaseNetwork.user[111] readProbability 0.5
par DatabaseNetwork.user[111] numTables 20
par DatabaseNetwork.user[111] tableDistribution "\"lognormal\""
par DatabaseNetwork.user[111] serviceTime 0.1s
attr unit s
par DatabaseNetwork.user[111] lognormalM 1.5
par DatabaseNetwork.user[111] lognormalS 1
scalar DatabaseNetwork.user[111] totalAccesses 518
scalar DatabaseNetwork.user[111] totalReads 262
scalar DatabaseNetwork.user[111] totalWrites 256
scalar DatabaseNetwork.user[111] averageWaitTime 0.10316592390327
scalar DatabaseNetwork.user[111] accessesPerSecond 0.0518
par DatabaseNetwork.user[112] typename "\"progetto.User\""
[...]
attr unit s
par DatabaseNetwork.user[188] lognormalM 1.5
par DatabaseNetwork.user[188] lognormalS 1
scalar DatabaseNetwork.user[188] totalAccesses 522
scalar DatabaseNetwork.user[188] totalReads 245
scalar DatabaseNetwork.user[188] totalWrites 277
scalar DatabaseNetwork.user[188] averageWaitTime 0.10361548723028
scalar DatabaseNetwork.user[188] accessesPerSecond 0.0522
par DatabaseNetwork.user[189] typename "\"progetto.User\""
par DatabaseNetwork.user[189] userId 189
par DatabaseNetwork.user[189] lambda 0.05
par DatabaseNetwork.user[189] readProbability 0.5
par DatabaseNetwork.user[189] numTables 20
par DatabaseNetwork.user[189] tableDistribution "\"lognormal\""
par DatabaseNetwork.user[189] serviceTime 0.1s
attr unit s
par DatabaseNetwork.user[189] lognormalM 1.5
par DatabaseNetwork.user[189] lognormalS 1
scalar DatabaseNetwork.user[189] totalAccesses 463
scalar DatabaseNetwork.user[189] totalReads 229
scalar DatabaseNetwork.user[189] totalWrites 234
scalar DatabaseNetwork.user[189] averageWaitTime 0.10290832406517
scalar DatabaseNetwork.user[189] accessesPerSecond 0.0463
par DatabaseNetwork.user[190] typename "\"progetto.User\""
par DatabaseNetwork.user[190] userId 190
par DatabaseNetwork.user[190] lambda 0.05
par DatabaseNetwork.user[190] readProbability 0.5
par DatabaseNetwork.user[190] numTables 20
par DatabaseNetwork.user[190] tableDistribution "\"lognormal\""
par DatabaseNetwork.user[190] serviceTime 0.1s
attr unit s
par DatabaseNetwork.user[190] lognormalM 1.5
par DatabaseNetwork.user[190] lognormalS 1
scalar DatabaseNetwork.user[190] totalAccesses 476
scalar DatabaseNetwork.user[190] totalReads 248
scalar DatabaseNetwork.user[190] totalWrites 228
scalar DatabaseNetwork.user[190] averageWaitTime 0.10274938289943
scalar DatabaseNetwork.user[190] accessesPerSecond 0.0476
par DatabaseNetwork.user[191] typename "\"progetto.User\""
par DatabaseNetwork.user[191] userId 191
par DatabaseNetwork.user[191] lambda 0.05
par DatabaseNetwork.user[191] readProbability 0.5
par DatabaseNetwork.user[191] numTables 20
par DatabaseNetwork.user[191] tableDistribution "\"lognormal\""
par DatabaseNetwork.user[191] serviceTime 0.1s
attr unit s
par DatabaseNetwork.user[191] lognormalM 1.5
par DatabaseNetwork.user[191] lognormalS 1
scalar DatabaseNetwork.user[191] totalAccesses 519
scalar DatabaseNetwork.user[191] totalReads 262
scalar DatabaseNetwork.user[191] totalWrites 257
scalar DatabaseNetwork.user[191] averageWaitTime 0.10300741236928
scalar DatabaseNetwork.user[191] accessesPerSecond 0.0519
par DatabaseNetwork.user[192] typename "\"progetto.User\""
par DatabaseNetwork.user[192] userId 192
par DatabaseNetwork.user[192] lambda 0.05
par DatabaseNetwork.user[192] readProbability 0.5
par DatabaseNetwork.user[192] numTables 20
par DatabaseNetwork.user[192] tableDistribution "\"lognormal\""
par DatabaseNetwork.user[192] serviceTime 0.1s
attr unit s
par DatabaseNetwork.user[192] lognormalM 1.5
par DatabaseNetwork.user[192] lognormalS 1
scalar DatabaseNetwork.user[192] totalAccesses 479
scalar DatabaseNetwork.user[192] totalReads 231
scalar DatabaseNetwork.user[192] totalWrites 248
scalar DatabaseNetwork.user[192] averageWaitTime 0.1021570065305
scalar DatabaseNetwork.user[192] accessesPerSecond 0.0479
par DatabaseNetwork.user[193] typename "\"progetto.User\""
par DatabaseNetwork.user[193] userId 193
par DatabaseNetwork.user[193] lambda 0.05
par DatabaseNetwork.user[193] readProbability 0.5
par DatabaseNetwork.user[193] numTables 20
par DatabaseNetwork.user[193] tableDistribution "\"lognormal\""
par DatabaseNetwork.user[193] serviceTime 0.1s
attr unit s
par DatabaseNetwork.user[193] lognormalM 1.5
par DatabaseNetwork.user[193] lognormalS 1
scalar DatabaseNetwork.user[193] totalAccesses 494
scalar DatabaseNetwork.user[193] totalReads 252
scalar DatabaseNetwork.user[193] totalWrites 242
scalar DatabaseNetwork.user[193] averageWaitTime 0.10306923604657
scalar DatabaseNetwork.user[193] accessesPerSecond 0.0494
par DatabaseNetwork.user[194] typename "\"progetto.User\""
par DatabaseNetwork.user[194] userId 194
par DatabaseNetwork.user[194] lambda 0.05
par DatabaseNetwork.user[194] readProbability 0.5
par DatabaseNetwork.user[194] numTables 20
par DatabaseNetwork.user[194] tableDistribution "\"lognormal\""
par DatabaseNetwork.user[194] serviceTime 0.1s
attr unit s
par DatabaseNetwork.user[194] lognormalM 1.5
par DatabaseNetwork.user[194] lognormalS 1
scalar DatabaseNetwork.user[194] totalAccesses 501
scalar DatabaseNetwork.user[194] totalReads 240
scalar DatabaseNetwork.user[194] totalWrites 261
scalar DatabaseNetwork.user[194] averageWaitTime 0.10330136981307
scalar DatabaseNetwork.user[194] accessesPerSecond 0.0501
par DatabaseNetwork.user[195] typename "\"progetto.User\""
par DatabaseNetwork.user[195] userId 195
par DatabaseNetwork.user[195] lambda 0.05
par DatabaseNetwork.user[195] readProbability 0.5
par DatabaseNetwork.user[195] numTables 20
par DatabaseNetwork.user[195] tableDistribution "\"lognormal\""
par DatabaseNetwork.user[195] serviceTime 0.1s
attr unit s
par DatabaseNetwork.user[195] lognormalM 1.5
par DatabaseNetwork.user[195] lognormalS 1
scalar DatabaseNetwork.user[195] totalAccesses 508
scalar DatabaseNetwork.user[195] totalReads 266
scalar DatabaseNetwork.user[195] totalWrites 242
scalar DatabaseNetwork.user[195] averageWaitTime 0.10276320491176
scalar DatabaseNetwork.user[195] accessesPerSecond 0.0508
par DatabaseNetwork.user[196] typename "\"progetto.User\""
par DatabaseNetwork.user[196] userId 196
par DatabaseNetwork.user[196] lambda 0.05
par DatabaseNetwork.user[196] readProbability 0.5
par DatabaseNetwork.user[196] numTables 20
par DatabaseNetwork.user[196] tableDistribution "\"lognormal\""
par DatabaseNetwork.user[196] serviceTime 0.1s
attr unit s
par DatabaseNetwork.user[196] lognormalM 1.5
par DatabaseNetwork.user[196] lognormalS 1
scalar DatabaseNetwork.user[196] totalAccesses 524
scalar DatabaseNetwork.user[196] totalReads 270
scalar DatabaseNetwork.user[196] totalWrites 254
scalar DatabaseNetwork.user[196] averageWaitTime 0.10448874667919
scalar DatabaseNetwork.user[196] accessesPerSecond 0.0524
par DatabaseNetwork.user[197] typename "\"progetto.User\""
par DatabaseNetwork.user[197] userId 197
par DatabaseNetwork.user[197] lambda 0.05
par DatabaseNetwork.user[197] readProbability 0.5
par DatabaseNetwork.user[197] numTables 20
par DatabaseNetwork.user[197] tableDistribution "\"lognormal\""
par DatabaseNetwork.user[197] serviceTime 0.1s
attr unit s
par DatabaseNetwork.user[197] lognormalM 1.5
par DatabaseNetwork.user[197] lognormalS 1
scalar DatabaseNetwork.user[197] totalAccesses 491
scalar DatabaseNetwork.user[197] totalReads 260
scalar DatabaseNetwork.user[197] totalWrites 231
scalar DatabaseNetwork.user[197] averageWaitTime 0.10246349133137
scalar DatabaseNetwork.user[197] accessesPerSecond 0.0491
par DatabaseNetwork.user[198] typename "\"progetto.User\""
par DatabaseNetwork.user[198] userId 198
par DatabaseNetwork.user[198] lambda 0.05
par DatabaseNetwork.user[198] readProbability 0.5
par DatabaseNetwork.user[198] numTables 20
par DatabaseNetwork.user[198] tableDistribution "\"lognormal\""
par DatabaseNetwork.user[198] serviceTime 0.1s
attr unit s
par DatabaseNetwork.user[198] lognormalM 1.5
par DatabaseNetwork.user[198] lognormalS 1
scalar DatabaseNetwork.user[198] totalAccesses 450
scalar DatabaseNetwork.user[198] totalReads 223
scalar DatabaseNetwork.user[198] totalWrites 227
scalar DatabaseNetwork.user[198] averageWaitTime 0.10266659488254
scalar DatabaseNetwork.user[198] accessesPerSecond 0.045
par DatabaseNetwork.user[199] typename "\"progetto.User\""
par DatabaseNetwork.user[199] userId 199
par DatabaseNetwork.user[199] lambda 0.05
par DatabaseNetwork.user[199] readProbability 0.5
par DatabaseNetwork.user[199] numTables 20
par DatabaseNetwork.user[199] tableDistribution "\"lognormal\""
par DatabaseNetwork.user[199] serviceTime 0.1s
attr unit s
par DatabaseNetwork.user[199] lognormalM 1.5
par DatabaseNetwork.user[199] lognormalS 1
scalar DatabaseNetwork.user[199] totalAccesses 532
scalar DatabaseNetwork.user[199] totalReads 269
scalar DatabaseNetwork.user[199] totalWrites 263
scalar DatabaseNetwork.user[199] averageWaitTime 0.1029839745821
scalar DatabaseNetwork.user[199] accessesPerSecond 0.0532
par DatabaseNetwork.table[0] typename "\"progetto.Table\""
par DatabaseNetwork.table[0] tableId 0
scalar DatabaseNetwork.table[0] table.totalServed 7532
scalar DatabaseNetwork.table[0] table.totalReads 3777
scalar DatabaseNetwork.table[0] table.totalWrites 3755
scalar DatabaseNetwork.table[0] table.throughput 0.7532
scalar DatabaseNetwork.table[0] table.maxQueueLength 3
scalar DatabaseNetwork.table[0] table.avgQueueLength 1.0039830058417
scalar DatabaseNetwork.table[0] table.avgWaitingTime 0.0031582026911639
scalar DatabaseNetwork.table[0] table.utilization 0.99996832509222
par DatabaseNetwork.table[1] typename "\"progetto.Table\""
par DatabaseNetwork.table[1] tableId 1
scalar DatabaseNetwork.table[1] table.totalServed 14943
scalar DatabaseNetwork.table[1] table.totalReads 7471
scalar DatabaseNetwork.table[1] table.totalWrites 7472
scalar DatabaseNetwork.table[1] table.throughput 1.4943
scalar DatabaseNetwork.table[1] table.maxQueueLength 3
scalar DatabaseNetwork.table[1] table.avgQueueLength 1.0104396707488
scalar DatabaseNetwork.table[1] table.avgWaitingTime 0.0064920365655152
scalar DatabaseNetwork.table[1] table.utilization 0.99998763237815
par DatabaseNetwork.table[2] typename "\"progetto.Table\""
par DatabaseNetwork.table[2] tableId 2
scalar DatabaseNetwork.table[2] table.totalServed 14093
scalar DatabaseNetwork.table[2] table.totalReads 6974
scalar DatabaseNetwork.table[2] table.totalWrites 7119
scalar DatabaseNetwork.table[2] table.throughput 1.4093
scalar DatabaseNetwork.table[2] table.maxQueueLength 3
scalar DatabaseNetwork.table[2] table.avgQueueLength 1.0074505073441
scalar DatabaseNetwork.table[2] table.avgWaitingTime 0.0056781323140763
scalar DatabaseNetwork.table[2] table.utilization 0.99985044404892
par DatabaseNetwork.table[3] typename "\"progetto.Table\""
par DatabaseNetwork.table[3] tableId 3
scalar DatabaseNetwork.table[3] table.totalServed 11650
scalar DatabaseNetwork.table[3] table.totalReads 5834
scalar DatabaseNetwork.table[3] table.totalWrites 5816
scalar DatabaseNetwork.table[3] table.throughput 1.165
scalar DatabaseNetwork.table[3] table.maxQueueLength 4
scalar DatabaseNetwork.table[3] table.avgQueueLength 1.0056652360515
scalar DatabaseNetwork.table[3] table.avgWaitingTime 0.0046746832156881
scalar DatabaseNetwork.table[3] table.utilization 0.9999932910238
par DatabaseNetwork.table[4] typename "\"progetto.Table\""
par DatabaseNetwork.table[4] tableId 4
scalar DatabaseNetwork.table[4] table.totalServed 9531
scalar DatabaseNetwork.table[4] table.totalReads 4802
scalar DatabaseNetwork.table[4] table.totalWrites 4729
scalar DatabaseNetwork.table[4] table.throughput 0.9531
scalar DatabaseNetwork.table[4] table.maxQueueLength 2
scalar DatabaseNetwork.table[4] table.avgQueueLength 1.002727940405
scalar DatabaseNetwork.table[4] table.avgWaitingTime 0.003714184755285
scalar DatabaseNetwork.table[4] table.utilization 0.99988149477577
par DatabaseNetwork.table[5] typename "\"progetto.Table\""
par DatabaseNetwork.table[5] tableId 5
scalar DatabaseNetwork.table[5] table.totalServed 7602
scalar DatabaseNetwork.table[5] table.totalReads 3715
scalar DatabaseNetwork.table[5] table.totalWrites 3887
scalar DatabaseNetwork.table[5] table.throughput 0.7602
scalar DatabaseNetwork.table[5] table.maxQueueLength 2
scalar DatabaseNetwork.table[5] table.avgQueueLength 1.0022362536175
scalar DatabaseNetwork.table[5] table.avgWaitingTime 0.0028459801605456
scalar DatabaseNetwork.table[5] table.utilization 0.9997847803064
par DatabaseNetwork.table[6] typename "\"progetto.Table\""
par DatabaseNetwork.table[6] tableId 6
scalar DatabaseNetwork.table[6] table.totalServed 6146
scalar DatabaseNetwork.table[6] table.totalReads 3022
scalar DatabaseNetwork.table[6] table.totalWrites 3124
scalar DatabaseNetwork.table[6] table.throughput 0.6146
scalar DatabaseNetwork.table[6] table.maxQueueLength 2
scalar DatabaseNetwork.table[6] table.avgQueueLength 1.0021148527737
scalar DatabaseNetwork.table[6] table.avgWaitingTime 0.0024511296328368
scalar DatabaseNetwork.table[6] table.utilization 1
par DatabaseNetwork.table[7] typename "\"progetto.Table\""
par DatabaseNetwork.table[7] tableId 7
scalar DatabaseNetwork.table[7] table.totalServed 4992
scalar DatabaseNetwork.table[7] table.totalReads 2527
scalar DatabaseNetwork.table[7] table.totalWrites 2465
scalar DatabaseNetwork.table[7] table.throughput 0.4992
scalar DatabaseNetwork.table[7] table.maxQueueLength 2
scalar DatabaseNetwork.table[7] table.avgQueueLength 1.0014022435897
scalar DatabaseNetwork.table[7] table.avgWaitingTime 0.0019553466810552
scalar DatabaseNetwork.table[7] table.utilization 0.99973280530787
par DatabaseNetwork.table[8] typename "\"progetto.Table\""
par DatabaseNetwork.table[8] tableId 8
scalar DatabaseNetwork.table[8] table.totalServed 4126
scalar DatabaseNetwork.table[8] table.totalReads 2120
scalar DatabaseNetwork.table[8] table.totalWrites 2006
scalar DatabaseNetwork.table[8] table.throughput 0.4126
scalar DatabaseNetwork.table[8] table.maxQueueLength 2
scalar DatabaseNetwork.table[8] table.avgQueueLength 1.0009694619486
scalar DatabaseNetwork.table[8] table.avgWaitingTime 0.0013793296321786
scalar DatabaseNetwork.table[8] table.utilization 0.99990592287943
par DatabaseNetwork.table[9] typename "\"progetto.Table\""
par DatabaseNetwork.table[9] tableId 9
scalar DatabaseNetwork.table[9] table.totalServed 3455
scalar DatabaseNetwork.table[9] table.totalReads 1775
scalar DatabaseNetwork.table[9] table.totalWrites 1680
scalar DatabaseNetwork.table[9] table.throughput 0.3455
scalar DatabaseNetwork.table[9] table.maxQueueLength 2
scalar DatabaseNetwork.table[9] table.avgQueueLength 1.0005788712012
scalar DatabaseNetwork.table[9] table.avgWaitingTime 0.0012472107909497
scalar DatabaseNetwork.table[9] table.utilization 0.99984611202009
par DatabaseNetwork.table[10] typename "\"progetto.Table\""
par DatabaseNetwork.table[10] tableId 10
scalar DatabaseNetwork.table[10] table.totalServed 2889
scalar DatabaseNetwork.table[10] table.totalReads 1449
scalar DatabaseNetwork.table[10] table.totalWrites 1440
scalar DatabaseNetwork.table[10] table.throughput 0.2889
scalar DatabaseNetwork.table[10] table.maxQueueLength 1
scalar DatabaseNetwork.table[10] table.avgQueueLength 1
scalar DatabaseNetwork.table[10] table.avgWaitingTime 0.00098965702156087
scalar DatabaseNetwork.table[10] table.utilization 0.99978185239029
par DatabaseNetwork.table[11] typename "\"progetto.Table\""
par DatabaseNetwork.table[11] tableId 11
scalar DatabaseNetwork.table[11] table.totalServed 2521
scalar DatabaseNetwork.table[11] table.totalReads 1219
scalar DatabaseNetwork.table[11] table.totalWrites 1302
scalar DatabaseNetwork.table[11] table.throughput 0.2521
scalar DatabaseNetwork.table[11] table.maxQueueLength 1
scalar DatabaseNetwork.table[11] table.avgQueueLength 1
scalar DatabaseNetwork.table[11] table.avgWaitingTime 0.00095992396039528
scalar DatabaseNetwork.table[11] table.utilization 0.99986157726463
par DatabaseNetwork.table[12] typename "\"progetto.Table\""
par DatabaseNetwork.table[12] tableId 12
scalar DatabaseNetwork.table[12] table.totalServed 2123
scalar DatabaseNetwork.table[12] table.totalReads 1075
scalar DatabaseNetwork.table[12] table.totalWrites 1048
scalar DatabaseNetwork.table[12] table.throughput 0.2123
scalar DatabaseNetwork.table[12] table.maxQueueLength 1
scalar DatabaseNetwork.table[12] table.avgQueueLength 1
scalar DatabaseNetwork.table[12] table.avgWaitingTime 0.00093100639495974
scalar DatabaseNetwork.table[12] table.utilization 0.99876516958692
par DatabaseNetwork.table[13] typename "\"progetto.Table\""
par DatabaseNetwork.table[13] tableId 13
scalar DatabaseNetwork.table[13] table.totalServed 1780
scalar DatabaseNetwork.table[13] table.totalReads 874
scalar DatabaseNetwork.table[13] table.totalWrites 906
scalar DatabaseNetwork.table[13] table.throughput 0.178
scalar DatabaseNetwork.table[13] table.maxQueueLength 1
scalar DatabaseNetwork.table[13] table.avgQueueLength 1
scalar DatabaseNetwork.table[13] table.avgWaitingTime 0.00058281245552328
scalar DatabaseNetwork.table[13] table.utilization 0.99922836442516
par DatabaseNetwork.table[14] typename "\"progetto.Table\""
par DatabaseNetwork.table[14] tableId 14
scalar DatabaseNetwork.table[14] table.totalServed 1625
scalar DatabaseNetwork.table[14] table.totalReads 853
scalar DatabaseNetwork.table[14] table.totalWrites 772
scalar DatabaseNetwork.table[14] table.throughput 0.1625
scalar DatabaseNetwork.table[14] table.maxQueueLength 1
scalar DatabaseNetwork.table[14] table.avgQueueLength 1
scalar DatabaseNetwork.table[14] table.avgWaitingTime 0.00052304973197771
scalar DatabaseNetwork.table[14] table.utilization 0.99977655482787
par DatabaseNetwork.table[15] typename "\"progetto.Table\""
par DatabaseNetwork.table[15] tableId 15
scalar DatabaseNetwork.table[15] table.totalServed 1438
scalar DatabaseNetwork.table[15] table.totalReads 694
scalar DatabaseNetwork.table[15] table.totalWrites 744
scalar DatabaseNetwork.table[15] table.throughput 0.1438
scalar DatabaseNetwork.table[15] table.maxQueueLength 2
scalar DatabaseNetwork.table[15] table.avgQueueLength 1.0006954102921
scalar DatabaseNetwork.table[15] table.avgWaitingTime 0.00079237905602331
scalar DatabaseNetwork.table[15] table.utilization 0.99931334610742
par DatabaseNetwork.table[16] typename "\"progetto.Table\""
par DatabaseNetwork.table[16] tableId 16
scalar DatabaseNetwork.table[16] table.totalServed 1244
scalar DatabaseNetwork.table[16] table.totalReads 659
scalar DatabaseNetwork.table[16] table.totalWrites 585
scalar DatabaseNetwork.table[16] table.throughput 0.1244
scalar DatabaseNetwork.table[16] table.maxQueueLength 1
scalar DatabaseNetwork.table[16] table.avgQueueLength 1
scalar DatabaseNetwork.table[16] table.avgWaitingTime 0.00050173211305811
scalar DatabaseNetwork.table[16] table.utilization 0.99890948976271
par DatabaseNetwork.table[17] typename "\"progetto.Table\""
par DatabaseNetwork.table[17] tableId 17
scalar DatabaseNetwork.table[17] table.totalServed 1026
scalar DatabaseNetwork.table[17] table.totalReads 517
scalar DatabaseNetwork.table[17] table.totalWrites 509
scalar DatabaseNetwork.table[17] table.throughput 0.1026
scalar DatabaseNetwork.table[17] table.maxQueueLength 1
scalar DatabaseNetwork.table[17] table.avgQueueLength 1
scalar DatabaseNetwork.table[17] table.avgWaitingTime 0.00042096309408269
scalar DatabaseNetwork.table[17] table.utilization 0.999367669707
par DatabaseNetwork.table[18] typename "\"progetto.Table\""
par DatabaseNetwork.table[18] tableId 18
scalar DatabaseNetwork.table[18] table.totalServed 883
scalar DatabaseNetwork.table[18] table.totalReads 445
scalar DatabaseNetwork.table[18] table.totalWrites 438
scalar DatabaseNetwork.table[18] table.throughput 0.0883
scalar DatabaseNetwork.table[18] table.maxQueueLength 1
scalar DatabaseNetwork.table[18] table.avgQueueLength 1
scalar DatabaseNetwork.table[18] table.avgWaitingTime 0.00010245712546501
scalar DatabaseNetwork.table[18] table.utilization 0.99997533029806
par DatabaseNetwork.table[19] typename "\"progetto.Table\""
par DatabaseNetwork.table[19] tableId 19
scalar DatabaseNetwork.table[19] table.totalServed 775
scalar DatabaseNetwork.table[19] table.totalReads 367
scalar DatabaseNetwork.table[19] table.totalWrites 408
scalar DatabaseNetwork.table[19] table.throughput 0.0775
scalar DatabaseNetwork.table[19] table.maxQueueLength 1
scalar DatabaseNetwork.table[19] table.avgQueueLength 1
scalar DatabaseNetwork.table[19] table.avgWaitingTime 9.0986240562826e-05
scalar DatabaseNetwork.table[19] table.utilization 0.99504169352294
par DatabaseNetwork typename "\"progetto.DatabaseNetwork\""
par DatabaseNetwork numUsers 200
par DatabaseNetwork numTables 20

