version 3
run Lognormal-102-20260105-17:15:22-28123
attr configname Lognormal
attr datetime 20260105-17:15:22
attr datetimef 20260105-171522
attr experiment Lognormal
attr inifile omnetpp.ini
attr iterationvars "$N=200, $p=0.3"
attr iterationvarsd N=200/p=0.3
attr iterationvarsf N=200,p=0.3-
attr measurement "$N=200, $p=0.3"
attr network progetto.DatabaseNetwork
attr processid 28123
attr repetition 2
attr replication #2
attr resultdir results
attr runnumber 102
attr seedset 2
itervar N 200
itervar p 0.3
config description "Lognormal distribution (hotspots) - varia N e p"
config *.user[*].tableDistribution "\"lognormal\""
config *.user[*].lognormalM 1.5
config *.user[*].lognormalS 1.0
config *.numUsers 200
config *.user[*].readProbability 0.3
config network progetto.DatabaseNetwork
config sim-time-limit 10000s
config cpu-time-limit 3600s
config repeat 5
config seed-set 2
config output-vector-file "results/Lognormal-$N=200, $p=0.3-2.vec"
config output-scalar-file "results/Lognormal-$N=200, $p=0.3-2.sca"
config result-dir results
config **.vector-recording true
config **.scalar-recording true
config *.numTables 20
config *.user[*].lambda 0.05
config *.user[*].serviceTime 0.1s

par DatabaseNetwork.user[0] typename "\"progetto.User\""
par DatabaseNetwork.user[0] userId 0
par DatabaseNetwork.user[0] lambda 0.05
par DatabaseNetwork.user[0] readProbability 0.3
par DatabaseNetwork.user[0] numTables 20
par DatabaseNetwork.user[0] tableDistribution "\"lognormal\""
par DatabaseNetwork.user[0] serviceTime 0.1s
attr unit s
par DatabaseNetwork.user[0] lognormalM 1.5
par DatabaseNetwork.user[0] lognormalS 1
scalar DatabaseNetwork.user[0] totalAccesses 484
scalar DatabaseNetwork.user[0] totalReads 122
scalar DatabaseNetwork.user[0] totalWrites 362
scalar DatabaseNetwork.user[0] averageWaitTime 0.10436519881323
scalar DatabaseNetwork.user[0] accessesPerSecond 0.0484
par DatabaseNetwork.user[1] typename "\"progetto.User\""
par DatabaseNetwork.user[1] userId 1
par DatabaseNetwork.user[1] lambda 0.05
par DatabaseNetwork.user[1] readProbability 0.3
par DatabaseNetwork.user[1] numTables 20
par DatabaseNetwork.user[1] tableDistribution "\"lognormal\""
par DatabaseNetwork.user[1] serviceTime 0.1s
attr unit s
par DatabaseNetwork.user[1] lognormalM 1.5
par DatabaseNetwork.user[1] lognormalS 1
scalar DatabaseNetwork.user[1] totalAccesses 523
scalar DatabaseNetwork.user[1] totalReads 161
scalar DatabaseNetwork.user[1] totalWrites 362
scalar DatabaseNetwork.user[1] averageWaitTime 0.10457359010283
scalar DatabaseNetwork.user[1] accessesPerSecond 0.0523
par DatabaseNetwork.user[2] typename "\"progetto.User\""
par DatabaseNetwork.user[2] userId 2
par DatabaseNetwork.user[2] lambda 0.05
par DatabaseNetwork.user[2] readProbability 0.3
par DatabaseNetwork.user[2] numTables 20
par DatabaseNetwork.user[2] tableDistribution "\"lognormal\""
par DatabaseNetwork.user[2] serviceTime 0.1s
attr unit s
par DatabaseNetwork.user[2] lognormalM 1.5
par DatabaseNetwork.user[2] lognormalS 1
scalar DatabaseNetwork.user[2] totalAccesses 486
scalar DatabaseNetwork.user[2] totalReads 155
scalar DatabaseNetwork.user[2] totalWrites 331
scalar DatabaseNetwork.user[2] averageWaitTime 0.10419569377821
scalar DatabaseNetwork.user[2] accessesPerSecond 0.0486
par DatabaseNetwork.user[3] typename "\"progetto.User\""
par DatabaseNetwork.user[3] userId 3
par DatabaseNetwork.user[3] lambda 0.05
par DatabaseNetwork.user[3] readProbability 0.3
par DatabaseNetwork.user[3] numTables 20
par DatabaseNetwork.user[3] tableDistribution "\"lognormal\""
par DatabaseNetwork.user[3] serviceTime 0.1s
attr unit s
par DatabaseNetwork.user[3] lognormalM 1.5
par DatabaseNetwork.user[3] lognormalS 1
scalar DatabaseNetwork.user[3] totalAccesses 516
scalar DatabaseNetwork.user[3] totalReads 148
scalar DatabaseNetwork.user[3] totalWrites 368
scalar DatabaseNetwork.user[3] averageWaitTime 0.10479726623419
scalar DatabaseNetwork.user[3] accessesPerSecond 0.0516
par DatabaseNetwork.user[4] typename "\"progetto.User\""
par DatabaseNetwork.user[4] userId 4
par DatabaseNetwork.user[4] lambda 0.05
par DatabaseNetwork.user[4] readProbability 0.3
par DatabaseNetwork.user[4] numTables 20
par DatabaseNetwork.user[4] tableDistribution "\"lognormal\""
par DatabaseNetwork.user[4] serviceTime 0.1s
attr unit s
par DatabaseNetwork.user[4] lognormalM 1.5
par DatabaseNetwork.user[4] lognormalS 1
scalar DatabaseNetwork.user[4] totalAccesses 488
scalar DatabaseNetwork.user[4] totalReads 150
scalar DatabaseNetwork.user[4] totalWrites 338
scalar DatabaseNetwork.user[4] averageWaitTime 0.10411859449161
scalar DatabaseNetwork.user[4] accessesPerSecond 0.0488
par DatabaseNetwork.user[5] typename "\"progetto.User\""
par DatabaseNetwork.user[5] userId 5
par DatabaseNetwork.user[5] lambda 0.05
par DatabaseNetwork.user[5] readProbability 0.3
par DatabaseNetwork.user[5] numTables 20
par DatabaseNetwork.user[5] tableDistribution "\"lognormal\""
par DatabaseNetwork.user[5] serviceTime 0.1s
attr unit s
par DatabaseNetwork.user[5] lognormalM 1.5
par DatabaseNetwork.user[5] lognormalS 1
scalar DatabaseNetwork.user[5] totalAccesses 509
scalar DatabaseNetwork.user[5] totalReads 142
scalar DatabaseNetwork.user[5] totalWrites 367
scalar DatabaseNetwork.user[5] averageWaitTime 0.10655665446903
scalar DatabaseNetwork.user[5] accessesPerSecond 0.0509
par DatabaseNetwork.user[6] typename "\"progetto.User\""
par DatabaseNetwork.user[6] userId 6
par DatabaseNetwork.user[6] lambda 0.05
par DatabaseNetwork.user[6] readProbability 0.3
par DatabaseNetwork.user[6] numTables 20
par DatabaseNetwork.user[6] tableDistribution "\"lognormal\""
par DatabaseNetwork.user[6] serviceTime 0.1s
attr unit s
par DatabaseNetwork.user[6] lognormalM 1.5
par DatabaseNetwork.user[6] lognormalS 1
scalar DatabaseNetwork.user[6] totalAccesses 471
scalar DatabaseNetwork.user[6] totalReads 145
scalar DatabaseNetwork.user[6] totalWrites 326
scalar DatabaseNetwork.user[6] averageWaitTime 0.10542544931562
scalar DatabaseNetwork.user[6] accessesPerSecond 0.0471
par DatabaseNetwork.user[7] typename "\"progetto.User\""
par DatabaseNetwork.user[7] userId 7
par DatabaseNetwork.user[7] lambda 0.05
par DatabaseNetwork.user[7] readProbability 0.3
par DatabaseNetwork.user[7] numTables 20
par DatabaseNetwork.user[7] tableDistribution "\"lognormal\""
par DatabaseNetwork.user[7] serviceTime 0.1s
attr unit s
par DatabaseNetwork.user[7] lognormalM 1.5
par DatabaseNetwork.user[7] lognormalS 1
scalar DatabaseNetwork.user[7] totalAccesses 530
scalar DatabaseNetwork.user[7] totalReads 176
scalar DatabaseNetwork.user[7] totalWrites 354
scalar DatabaseNetwork.user[7] averageWaitTime 0.10442589870526
scalar DatabaseNetwork.user[7] accessesPerSecond 0.053
par DatabaseNetwork.user[8] typename "\"progetto.User\""
par DatabaseNetwork.user[8] userId 8
par DatabaseNetwork.user[8] lambda 0.05
par DatabaseNetwork.user[8] readProbability 0.3
par DatabaseNetwork.user[8] numTables 20
par DatabaseNetwork.user[8] tableDistribution "\"lognormal\""
par DatabaseNetwork.user[8] serviceTime 0.1s
attr unit s
par DatabaseNetwork.user[8] lognormalM 1.5
par DatabaseNetwork.user[8] lognormalS 1
scalar DatabaseNetwork.user[8] totalAccesses 519
scalar DatabaseNetwork.user[8] totalReads 143
scalar DatabaseNetwork.user[8] totalWrites 376
scalar DatabaseNetwork.user[8] averageWaitTime 0.10475648183203
scalar DatabaseNetwork.user[8] accessesPerSecond 0.0519
par DatabaseNetwork.user[9] typename "\"progetto.User\""
par DatabaseNetwork.user[9] userId 9
par DatabaseNetwork.user[9] lambda 0.05
par DatabaseNetwork.user[9] readProbability 0.3
par DatabaseNetwork.user[9] numTables 20
par DatabaseNetwork.user[9] tableDistribution "\"lognormal\""
par DatabaseNetwork.user[9] serviceTime 0.1s
attr unit s
par DatabaseNetwork.user[9] lognormalM 1.5
par DatabaseNetwork.user[9] lognormalS 1
scalar DatabaseNetwork.user[9] totalAccesses 520
scalar DatabaseNetwork.user[9] totalReads 150
scalar DatabaseNetwork.user[9] totalWrites 370
scalar DatabaseNetwork.user[9] averageWaitTime 0.10390326689851
scalar DatabaseNetwork.user[9] accessesPerSecond 0.052
par DatabaseNetwork.user[10] typename "\"progetto.User\""
par DatabaseNetwork.user[10] userId 10
par DatabaseNetwork.user[10] lambda 0.05
par DatabaseNetwork.user[10] readProbability 0.3
par DatabaseNetwork.user[10] numTables 20
par DatabaseNetwork.user[10] tableDistribution "\"lognormal\""
par DatabaseNetwork.user[10] serviceTime 0.1s
attr unit s
par DatabaseNetwork.user[10] lognormalM 1.5
par DatabaseNetwork.user[10] lognormalS 1
scalar DatabaseNetwork.user[10] totalAccesses 531
scalar DatabaseNetwork.user[10] totalReads 166
scalar DatabaseNetwork.user[10] totalWrites 365
scalar DatabaseNetwork.user[10] averageWaitTime 0.10426546041368
scalar DatabaseNetwork.user[10] accessesPerSecond 0.0531
par DatabaseNetwork.user[11] typename "\"progetto.User\""
par DatabaseNetwork.user[11] userId 11
par DatabaseNetwork.user[11] lambda 0.05
par DatabaseNetwork.user[11] readProbability 0.3
par DatabaseNetwork.user[11] numTables 20
par DatabaseNetwork.user[11] tableDistribution "\"lognormal\""
par DatabaseNetwork.user[11] serviceTime 0.1s
attr unit s
par DatabaseNetwork.user[11] lognormalM 1.5
par DatabaseNetwork.user[11] lognormalS 1
scalar DatabaseNetwork.user[11] totalAccesses 476
scalar DatabaseNetwork.user[11] totalReads 128
scalar DatabaseNetwork.user[11] totalWrites 348
scalar DatabaseNetwork.user[11] averageWaitTime 0.10479083667841
scalar DatabaseNetwork.user[11] accessesPerSecond 0.0476
par DatabaseNetwork.user[12] typename "\"progetto.User\""
par DatabaseNetwork.user[12] userId 12
par DatabaseNetwork.user[12] lambda 0.05
par DatabaseNetwork.user[12] readProbability 0.3
par DatabaseNetwork.user[12] numTables 20
par DatabaseNetwork.user[12] tableDistribution "\"lognormal\""
par DatabaseNetwork.user[12] serviceTime 0.1s
attr unit s
par DatabaseNetwork.user[12] lognormalM 1.5
par DatabaseNetwork.user[12] lognormalS 1
scalar DatabaseNetwork.user[12] totalAccesses 496
scalar DatabaseNetwork.user[12] totalReads 157
scalar DatabaseNetwork.user[12] totalWrites 339
scalar DatabaseNetwork.user[12] averageWaitTime 0.10402683708022
scalar DatabaseNetwork.user[12] accessesPerSecond 0.0496
par DatabaseNetwork.user[13] typename "\"progetto.User\""
par DatabaseNetwork.user[13] userId 13
par DatabaseNetwork.user[13] lambda 0.05
par DatabaseNetwork.user[13] readProbability 0.3
par DatabaseNetwork.user[13] numTables 20
par DatabaseNetwork.user[13] tableDistribution "\"lognormal\""
par DatabaseNetwork.user[13] serviceTime 0.1s
attr unit s
par DatabaseNetwork.user[13] lognormalM 1.5
par DatabaseNetwork.user[13] lognormalS 1
scalar DatabaseNetwork.user[13] totalAccesses 488
scalar DatabaseNetwork.user[13] totalReads 144
scalar DatabaseNetwork.user[13] totalWrites 344
scalar DatabaseNetwork.user[13] averageWaitTime 0.10448718203845
scalar DatabaseNetwork.user[13] accessesPerSecond 0.0488
par DatabaseNetwork.user[14] typename "\"progetto.User\""
par DatabaseNetwork.user[14] userId 14
par DatabaseNetwork.user[14] lambda 0.05
par DatabaseNetwork.user[14] readProbability 0.3
par DatabaseNetwork.user[14] numTables 20
par DatabaseNetwork.user[14] tableDistribution "\"lognormal\""
par DatabaseNetwork.user[14] serviceTime 0.1s
attr unit s
par DatabaseNetwork.user[14] lognormalM 1.5
par DatabaseNetwork.user[14] lognormalS 1
scalar DatabaseNetwork.user[14] totalAccesses 485
scalar DatabaseNetwork.user[14] totalReads 155
scalar DatabaseNetwork.user[14] totalWrites 330
scalar DatabaseNetwork.user[14] averageWaitTime 0.10438546719349
scalar DatabaseNetwork.user[14] accessesPerSecond 0.0485
par DatabaseNetwork.user[15] typename "\"progetto.User\""
par DatabaseNetwork.user[15] userId 15
par DatabaseNetwork.user[15] lambda 0.05
par DatabaseNetwork.user[15] readProbability 0.3
par DatabaseNetwork.user[15] numTables 20
par DatabaseNetwork.user[15] tableDistribution "\"lognormal\""
par DatabaseNetwork.user[15] serviceTime 0.1s
attr unit s
par DatabaseNetwork.user[15] lognormalM 1.5
par DatabaseNetwork.user[15] lognormalS 1
scalar DatabaseNetwork.user[15] totalAccesses 498
scalar DatabaseNetwork.user[15] totalReads 155
scalar DatabaseNetwork.user[15] totalWrites 343
scalar DatabaseNetwork.user[15] averageWaitTime 0.10457465912089
scalar DatabaseNetwork.user[15] accessesPerSecond 0.0498
par DatabaseNetwork.user[16] typename "\"progetto.User\""
par DatabaseNetwork.user[16] userId 16
par DatabaseNetwork.user[16] lambda 0.05
par DatabaseNetwork.user[16] readProbability 0.3
par DatabaseNetwork.user[16] numTables 20
par DatabaseNetwork.user[16] tableDistribution "\"lognormal\""
par DatabaseNetwork.user[16] serviceTime 0.1s
attr unit s
par DatabaseNetwork.user[16] lognormalM 1.5
par DatabaseNetwork.user[16] lognormalS 1
scalar DatabaseNetwork.user[16] totalAccesses 518
scalar DatabaseNetwork.user[16] totalReads 145
scalar DatabaseNetwork.user[16] totalWrites 373
scalar DatabaseNetwork.user[16] averageWaitTime 0.10439311390454
scalar DatabaseNetwork.user[16] accessesPerSecond 0.0518
par DatabaseNetwork.user[17] typename "\"progetto.User\""
par DatabaseNetwork.user[17] userId 17
par DatabaseNetwork.user[17] lambda 0.05
par DatabaseNetwork.user[17] readProbability 0.3
par DatabaseNetwork.user[17] numTables 20
par DatabaseNetwork.user[17] tableDistribution "\"lognormal\""
par DatabaseNetwork.user[17] serviceTime 0.1s
attr unit s
par DatabaseNetwork.user[17] lognormalM 1.5
par DatabaseNetwork.user[17] lognormalS 1
scalar DatabaseNetwork.user[17] totalAccesses 484
scalar DatabaseNetwork.user[17] totalReads 143
scalar DatabaseNetwork.user[17] totalWrites 341
scalar DatabaseNetwork.user[17] averageWaitTime 0.10558931200986
scalar DatabaseNetwork.user[17] accessesPerSecond 0.0484
par DatabaseNetwork.user[18] typename "\"progetto.User\""
par DatabaseNetwork.user[18] userId 18
par DatabaseNetwork.user[18] lambda 0.05
par DatabaseNetwork.user[18] readProbability 0.3
par DatabaseNetwork.user[18] numTables 20
par DatabaseNetwork.user[18] tableDistribution "\"lognormal\""
par DatabaseNetwork.user[18] serviceTime 0.1s
attr unit s
par DatabaseNetwork.user[18] lognormalM 1.5
par DatabaseNetwork.user[18] lognormalS 1
scalar DatabaseNetwork.user[18] totalAccesses 509
scalar DatabaseNetwork.user[18] totalReads 138
scalar DatabaseNetwork.user[18] totalWrites 371
scalar DatabaseNetwork.user[18] averageWaitTime 0.1044509563951
scalar DatabaseNetwork.user[18] accessesPerSecond 0.0509
par DatabaseNetwork.user[19] typename "\"progetto.User\""
par DatabaseNetwork.user[19] userId 19
par DatabaseNetwork.user[19] lambda 0.05
par DatabaseNetwork.user[19] readProbability 0.3
par DatabaseNetwork.user[19] numTables 20
par DatabaseNetwork.user[19] tableDistribution "\"lognormal\""
par DatabaseNetwork.user[19] serviceTime 0.1s
attr unit s
par DatabaseNetwork.user[19] lognormalM 1.5
par DatabaseNetwork.user[19] lognormalS 1
scalar DatabaseNetwork.user[19] totalAccesses 472
scalar DatabaseNetwork.user[19] totalReads 155
scalar DatabaseNetwork.user[19] totalWrites 317
scalar DatabaseNetwork.user[19] averageWaitTime 0.10383308963844
scalar DatabaseNetwork.user[19] accessesPerSecond 0.0472
par DatabaseNetwork.user[20] typename "\"progetto.User\""
par DatabaseNetwork.user[20] userId 20
par DatabaseNetwork.user[20] lambda 0.05
par DatabaseNetwork.user[20] readProbability 0.3
par DatabaseNetwork.user[20] numTables 20
par DatabaseNetwork.user[20] tableDistribution "\"lognormal\""
par DatabaseNetwork.user[20] serviceTime 0.1s
attr unit s
par DatabaseNetwork.user[20] lognormalM 1.5
par DatabaseNetwork.user[20] lognormalS 1
scalar DatabaseNetwork.user[20] totalAccesses 466
scalar DatabaseNetwork.user[20] totalReads 152
scalar DatabaseNetwork.user[20] totalWrites 314
scalar DatabaseNetwork.user[20] averageWaitTime 0.1040759905723
scalar DatabaseNetwork.user[20] accessesPerSecond 0.0466
par DatabaseNetwork.user[21] typename "\"progetto.User\""
par DatabaseNetwork.user[21] userId 21
par DatabaseNetwork.user[21] lambda 0.05
par DatabaseNetwork.user[21] readProbability 0.3
par DatabaseNetwork.user[21] numTables 20
par DatabaseNetwork.user[21] tableDistribution "\"lognormal\""
par DatabaseNetwork.user[21] serviceTime 0.1s
attr unit s
par DatabaseNetwork.user[21] lognormalM 1.5
par DatabaseNetwork.user[21] lognormalS 1
scalar DatabaseNetwork.user[21] totalAccesses 500
scalar DatabaseNetwork.user[21] totalReads 151
scalar DatabaseNetwork.user[21] totalWrites 349
scalar DatabaseNetwork.user[21] averageWaitTime 0.10314852128115
scalar DatabaseNetwork.user[21] accessesPerSecond 0.05
par DatabaseNetwork.user[22] typename "\"progetto.User\""
par DatabaseNetwork.user[22] userId 22
par DatabaseNetwork.user[22] lambda 0.05
par DatabaseNetwork.user[22] readProbability 0.3
par DatabaseNetwork.user[22] numTables 20
par DatabaseNetwork.user[22] tableDistribution "\"lognormal\""
par DatabaseNetwork.user[22] serviceTime 0.1s
attr unit s
par DatabaseNetwork.user[22] lognormalM 1.5
par DatabaseNetwork.user[22] lognormalS 1
scalar DatabaseNetwork.user[22] totalAccesses 487
scalar DatabaseNetwork.user[22] totalReads 152
scalar DatabaseNetwork.user[22] totalWrites 335
scalar DatabaseNetwork.user[22] averageWaitTime 0.10398637469418
scalar DatabaseNetwork.user[22] accessesPerSecond 0.0487
par DatabaseNetwork.user[23] typename "\"progetto.User\""
par DatabaseNetwork.user[23] userId 23
par DatabaseNetwork.user[23] lambda 0.05
par DatabaseNetwork.user[23] readProbability 0.3
par DatabaseNetwork.user[23] numTables 20
par DatabaseNetwork.user[23] tableDistribution "\"lognormal\""
par DatabaseNetwork.user[23] serviceTime 0.1s
attr unit s
par DatabaseNetwork.user[23] lognormalM 1.5
par DatabaseNetwork.user[23] lognormalS 1
scalar DatabaseNetwork.user[23] totalAccesses 492
scalar DatabaseNetwork.user[23] totalReads 167
scalar DatabaseNetwork.user[23] totalWrites 325
scalar DatabaseNetwork.user[23] averageWaitTime 0.10435804872298
scalar DatabaseNetwork.user[23] accessesPerSecond 0.0492
par DatabaseNetwork.user[24] typename "\"progetto.User\""
par DatabaseNetwork.user[24] userId 24
par DatabaseNetwork.user[24] lambda 0.05
par DatabaseNetwork.user[24] readProbability 0.3
par DatabaseNetwork.user[24] numTables 20
par DatabaseNetwork.user[24] tableDistribution "\"lognormal\""
par DatabaseNetwork.user[24] serviceTime 0.1s
attr unit s
par DatabaseNetwork.user[24] lognormalM 1.5
par DatabaseNetwork.user[24] lognormalS 1
scalar DatabaseNetwork.user[24] totalAccesses 502
scalar DatabaseNetwork.user[24] totalReads 175
scalar DatabaseNetwork.user[24] totalWrites 327
scalar DatabaseNetwork.user[24] averageWaitTime 0.10313443991837
scalar DatabaseNetwork.user[24] accessesPerSecond 0.0502
par DatabaseNetwork.user[25] typename "\"progetto.User\""
par DatabaseNetwork.user[25] userId 25
par DatabaseNetwork.user[25] lambda 0.05
par DatabaseNetwork.user[25] readProbability 0.3
par DatabaseNetwork.user[25] numTables 20
par DatabaseNetwork.user[25] tableDistribution "\"lognormal\""
par DatabaseNetwork.user[25] serviceTime 0.1s
attr unit s
par DatabaseNetwork.user[25] lognormalM 1.5
par DatabaseNetwork.user[25] lognormalS 1
scalar DatabaseNetwork.user[25] totalAccesses 509
scalar DatabaseNetwork.user[25] totalReads 143
scalar DatabaseNetwork.user[25] totalWrites 366
scalar DatabaseNetwork.user[25] averageWaitTime 0.10416224471849
scalar DatabaseNetwork.user[25] accessesPerSecond 0.0509
par DatabaseNetwork.user[26] typename "\"progetto.User\""
par DatabaseNetwork.user[26] userId 26
par DatabaseNetwork.user[26] lambda 0.05
par DatabaseNetwork.user[26] readProbability 0.3
par DatabaseNetwork.user[26] numTables 20
par DatabaseNetwork.user[26] tableDistribution "\"lognormal\""
par DatabaseNetwork.user[26] serviceTime 0.1s
attr unit s
par DatabaseNetwork.user[26] lognormalM 1.5
par DatabaseNetwork.user[26] lognormalS 1
scalar DatabaseNetwork.user[26] totalAccesses 498
scalar DatabaseNetwork.user[26] totalReads 158
scalar DatabaseNetwork.user[26] totalWrites 340
scalar DatabaseNetwork.user[26] averageWaitTime 0.10381495130874
scalar DatabaseNetwork.user[26] accessesPerSecond 0.0498
par DatabaseNetwork.user[27] typename "\"progetto.User\""
par DatabaseNetwork.user[27] userId 27
par DatabaseNetwork.user[27] lambda 0.05
par DatabaseNetwork.user[27] readProbability 0.3
par DatabaseNetwork.user[27] numTables 20
par DatabaseNetwork.user[27] tableDistribution "\"lognormal\""
par DatabaseNetwork.user[27] serviceTime 0.1s
attr unit s
par DatabaseNetwork.user[27] lognormalM 1.5
par DatabaseNetwork.user[27] lognormalS 1
scalar DatabaseNetwork.user[27] totalAccesses 491
scalar DatabaseNetwork.user[27] totalReads 147
scalar DatabaseNetwork.user[27] totalWrites 344
scalar DatabaseNetwork.user[27] averageWaitTime 0.10488355192337
scalar DatabaseNetwork.user[27] accessesPerSecond 0.0491
par DatabaseNetwork.user[28] typename "\"progetto.User\""
par DatabaseNetwork.user[28] userId 28
par DatabaseNetwork.user[28] lambda 0.05
par DatabaseNetwork.user[28] readProbability 0.3
par DatabaseNetwork.user[28] numTables 20
par DatabaseNetwork.user[28] tableDistribution "\"lognormal\""
par DatabaseNetwork.user[28] serviceTime 0.1s
attr unit s
par DatabaseNetwork.user[28] lognormalM 1.5
par DatabaseNetwork.user[28] lognormalS 1
scalar DatabaseNetwork.user[28] totalAccesses 472
scalar DatabaseNetwork.user[28] totalReads 137
scalar DatabaseNetwork.user[28] totalWrites 335
scalar DatabaseNetwork.user[28] averageWaitTime 0.10480417950735
scalar DatabaseNetwork.user[28] accessesPerSecond 0.0472
par DatabaseNetwork.user[29] typename "\"progetto.User\""
par DatabaseNetwork.user[29] userId 29
par DatabaseNetwork.user[29] lambda 0.05
par DatabaseNetwork.user[29] readProbability 0.3
par DatabaseNetwork.user[29] numTables 20
par DatabaseNetwork.user[29] tableDistribution "\"lognormal\""
par DatabaseNetwork.user[29] serviceTime 0.1s
attr unit s
par DatabaseNetwork.user[29] lognormalM 1.5
par DatabaseNetwork.user[29] lognormalS 1
scalar DatabaseNetwork.user[29] totalAccesses 514
scalar DatabaseNetwork.user[29] totalReads 144
scalar DatabaseNetwork.user[29] totalWrites 370
scalar DatabaseNetwork.user[29] averageWaitTime 0.10348785663599
scalar DatabaseNetwork.user[29] accessesPerSecond 0.0514
par DatabaseNetwork.user[30] typename "\"progetto.User\""
par DatabaseNetwork.user[30] userId 30
par DatabaseNetwork.user[30] lambda 0.05
par DatabaseNetwork.user[30] readProbability 0.3
par DatabaseNetwork.user[30] numTables 20
par DatabaseNetwork.user[30] tableDistribution "\"lognormal\""
par DatabaseNetwork.user[30] serviceTime 0.1s
attr unit s
par DatabaseNetwork.user[30] lognormalM 1.5
par DatabaseNetwork.user[30] lognormalS 1
scalar DatabaseNetwork.user[30] totalAccesses 500
scalar DatabaseNetwork.user[30] totalReads 146
scalar DatabaseNetwork.user[30] totalWrites 354
scalar DatabaseNetwork.user[30] averageWaitTime 0.10460543098661
scalar DatabaseNetwork.user[30] accessesPerSecond 0.05
par DatabaseNetwork.user[31] typename "\"progetto.User\""
par DatabaseNetwork.user[31] userId 31
par DatabaseNetwork.user[31] lambda 0.05
par DatabaseNetwork.user[31] readProbability 0.3
par DatabaseNetwork.user[31] numTables 20
par DatabaseNetwork.user[31] tableDistribution "\"lognormal\""
par DatabaseNetwork.user[31] serviceTime 0.1s
attr unit s
par DatabaseNetwork.user[31] lognormalM 1.5
par DatabaseNetwork.user[31] lognormalS 1
scalar DatabaseNetwork.user[31] totalAccesses 502
scalar DatabaseNetwork.user[31] totalReads 174
scalar DatabaseNetwork.user[31] totalWrites 328
scalar DatabaseNetwork.user[31] averageWaitTime 0.10484573928318
scalar DatabaseNetwork.user[31] accessesPerSecond 0.0502
par DatabaseNetwork.user[32] typename "\"progetto.User\""
par DatabaseNetwork.user[32] userId 32
par DatabaseNetwork.user[32] lambda 0.05
par DatabaseNetwork.user[32] readProbability 0.3
par DatabaseNetwork.user[32] numTables 20
par DatabaseNetwork.user[32] tableDistribution "\"lognormal\""
par DatabaseNetwork.user[32] serviceTime 0.1s
attr unit s
par DatabaseNetwork.user[32] lognormalM 1.5
par DatabaseNetwork.user[32] lognormalS 1
scalar DatabaseNetwork.user[32] totalAccesses 512
scalar DatabaseNetwork.user[32] totalReads 177
scalar DatabaseNetwork.user[32] totalWrites 335
scalar DatabaseNetwork.user[32] averageWaitTime 0.10301524010273
scalar DatabaseNetwork.user[32] accessesPerSecond 0.0512
par DatabaseNetwork.user[33] typename "\"progetto.User\""
par DatabaseNetwork.user[33] userId 33
par DatabaseNetwork.user[33] lambda 0.05
par DatabaseNetwork.user[33] readProbability 0.3
par DatabaseNetwork.user[33] numTables 20
par DatabaseNetwork.user[33] tableDistribution "\"lognormal\""
par DatabaseNetwork.user[33] serviceTime 0.1s
attr unit s
par DatabaseNetwork.user[33] lognormalM 1.5
par DatabaseNetwork.user[33] lognormalS 1
scalar DatabaseNetwork.user[33] totalAccesses 523
scalar DatabaseNetwork.user[33] totalReads 161
scalar DatabaseNetwork.user[33] totalWrites 362
scalar DatabaseNetwork.user[33] averageWaitTime 0.10673455315045
scalar DatabaseNetwork.user[33] accessesPerSecond 0.0523
par DatabaseNetwork.user[34] typename "\"progetto.User\""
par DatabaseNetwork.user[34] userId 34
par DatabaseNetwork.user[34] lambda 0.05
par DatabaseNetwork.user[34] readProbability 0.3
par DatabaseNetwork.user[34] numTables 20
par DatabaseNetwork.user[34] tableDistribution "\"lognormal\""
par DatabaseNetwork.user[34] serviceTime 0.1s
attr unit s
par DatabaseNetwork.user[34] lognormalM 1.5
par DatabaseNetwork.user[34] lognormalS 1
scalar DatabaseNetwork.user[34] totalAccesses 525
scalar DatabaseNetwork.user[34] totalReads 172
scalar DatabaseNetwork.user[34] totalWrites 353
scalar DatabaseNetwork.user[34] averageWaitTime 0.10465394570724
scalar DatabaseNetwork.user[34] accessesPerSecond 0.0525
par DatabaseNetwork.user[35] typename "\"progetto.User\""
par DatabaseNetwork.user[35] userId 35
par DatabaseNetwork.user[35] lambda 0.05
par DatabaseNetwork.user[35] readProbability 0.3
par DatabaseNetwork.user[35] numTables 20
par DatabaseNetwork.user[35] tableDistribution "\"lognormal\""
par DatabaseNetwork.user[35] serviceTime 0.1s
attr unit s
par DatabaseNetwork.user[35] lognormalM 1.5
par DatabaseNetwork.user[35] lognormalS 1
scalar DatabaseNetwork.user[35] totalAccesses 503
scalar DatabaseNetwork.user[35] totalReads 140
scalar DatabaseNetwork.user[35] totalWrites 363
scalar DatabaseNetwork.user[35] averageWaitTime 0.10525441315439
scalar DatabaseNetwork.user[35] accessesPerSecond 0.0503
par DatabaseNetwork.user[36] typename "\"progetto.User\""
par DatabaseNetwork.user[36] userId 36
par DatabaseNetwork.user[36] lambda 0.05
par DatabaseNetwork.user[36] readProbability 0.3
par DatabaseNetwork.user[36] numTables 20
par DatabaseNetwork.user[36] tableDistribution "\"lognormal\""
par DatabaseNetwork.user[36] serviceTime 0.1s
attr unit s
par DatabaseNetwork.user[36] lognormalM 1.5
par DatabaseNetwork.user[36] lognormalS 1
scalar DatabaseNetwork.user[36] totalAccesses 524
scalar DatabaseNetwork.user[36] totalReads 169
scalar DatabaseNetwork.user[36] totalWrites 355
scalar DatabaseNetwork.user[36] averageWaitTime 0.10562814262084
scalar DatabaseNetwork.user[36] accessesPerSecond 0.0524
par DatabaseNetwork.user[37] typename "\"progetto.User\""
par DatabaseNetwork.user[37] userId 37
par DatabaseNetwork.user[37] lambda 0.05
par DatabaseNetwork.user[37] readProbability 0.3
par DatabaseNetwork.user[37] numTables 20
par DatabaseNetwork.user[37] tableDistribution "\"lognormal\""
par DatabaseNetwork.user[37] serviceTime 0.1s
attr unit s
par DatabaseNetwork.user[37] lognormalM 1.5
par DatabaseNetwork.user[37] lognormalS 1
scalar DatabaseNetwork.user[37] totalAccesses 465
scalar DatabaseNetwork.user[37] totalReads 137
scalar DatabaseNetwork.user[37] totalWrites 328
scalar DatabaseNetwork.user[37] averageWaitTime 0.10337458825433
scalar DatabaseNetwork.user[37] accessesPerSecond 0.0465
par DatabaseNetwork.user[38] typename "\"progetto.User\""
par DatabaseNetwork.user[38] userId 38
par DatabaseNetwork.user[38] lambda 0.05
par DatabaseNetwork.user[38] readProbability 0.3
par DatabaseNetwork.user[38] numTables 20
par DatabaseNetwork.user[38] tableDistribution "\"lognormal\""
par DatabaseNetwork.user[38] serviceTime 0.1s
attr unit s
par DatabaseNetwork.user[38] lognormalM 1.5
par DatabaseNetwork.user[38] lognormalS 1
scalar DatabaseNetwork.user[38] totalAccesses 537
scalar DatabaseNetwork.user[38] totalReads 154
scalar DatabaseNetwork.user[38] totalWrites 383
scalar DatabaseNetwork.user[38] averageWaitTime 0.10486954608628
scalar DatabaseNetwork.user[38] accessesPerSecond 0.0537
par DatabaseNetwork.user[39] typename "\"progetto.User\""
par DatabaseNetwork.user[39] userId 39
par DatabaseNetwork.user[39] lambda 0.05
par DatabaseNetwork.user[39] readProbability 0.3
par DatabaseNetwork.user[39] numTables 20
par DatabaseNetwork.user[39] tableDistribution "\"lognormal\""
par DatabaseNetwork.user[39] serviceTime 0.1s
attr unit s
par DatabaseNetwork.user[39] lognormalM 1.5
par DatabaseNetwork.user[39] lognormalS 1
scalar DatabaseNetwork.user[39] totalAccesses 464
scalar DatabaseNetwork.user[39] totalReads 147
scalar DatabaseNetwork.user[39] totalWrites 317
scalar DatabaseNetwork.user[39] averageWaitTime 0.10501003582234
scalar DatabaseNetwork.user[39] accessesPerSecond 0.0464
par DatabaseNetwork.user[40] typename "\"progetto.User\""
par DatabaseNetwork.user[40] userId 40
par DatabaseNetwork.user[40] lambda 0.05
par DatabaseNetwork.user[40] readProbability 0.3
par DatabaseNetwork.user[40] numTables 20
par DatabaseNetwork.user[40] tableDistribution "\"lognormal\""
par DatabaseNetwork.user[40] serviceTime 0.1s
attr unit s
par DatabaseNetwork.user[40] lognormalM 1.5
par DatabaseNetwork.user[40] lognormalS 1
scalar DatabaseNetwork.user[40] totalAccesses 517
scalar DatabaseNetwork.user[40] totalReads 149
scalar DatabaseNetwork.user[40] totalWrites 368
scalar DatabaseNetwork.user[40] averageWaitTime 0.10489971064045
scalar DatabaseNetwork.user[40] accessesPerSecond 0.0517
par DatabaseNetwork.user[41] typename "\"progetto.User\""
par DatabaseNetwork.user[41] userId 41
par DatabaseNetwork.user[41] lambda 0.05
par DatabaseNetwork.user[41] readProbability 0.3
par DatabaseNetwork.user[41] numTables 20
par DatabaseNetwork.user[41] tableDistribution "\"lognormal\""
par DatabaseNetwork.user[41] serviceTime 0.1s
attr unit s
par DatabaseNetwork.user[41] lognormalM 1.5
par DatabaseNetwork.user[41] lognormalS 1
scalar DatabaseNetwork.user[41] totalAccesses 498
scalar DatabaseNetwork.user[41] totalReads 145
scalar DatabaseNetwork.user[41] totalWrites 353
scalar DatabaseNetwork.user[41] averageWaitTime 0.10447212351043
scalar DatabaseNetwork.user[41] accessesPerSecond 0.0498
par DatabaseNetwork.user[42] typename "\"progetto.User\""
par DatabaseNetwork.user[42] userId 42
par DatabaseNetwork.user[42] lambda 0.05
par DatabaseNetwork.user[42] readProbability 0.3
par DatabaseNetwork.user[42] numTables 20
par DatabaseNetwork.user[42] tableDistribution "\"lognormal\""
par DatabaseNetwork.user[42] serviceTime 0.1s
attr unit s
par DatabaseNetwork.user[42] lognormalM 1.5
par DatabaseNetwork.user[42] lognormalS 1
scalar DatabaseNetwork.user[42] totalAccesses 491
scalar DatabaseNetwork.user[42] totalReads 157
scalar DatabaseNetwork.user[42] totalWrites 334
scalar DatabaseNetwork.user[42] averageWaitTime 0.10382721720774
scalar DatabaseNetwork.user[42] accessesPerSecond 0.0491
par DatabaseNetwork.user[43] typename "\"progetto.User\""
par DatabaseNetwork.user[43] userId 43
par DatabaseNetwork.user[43] lambda 0.05
par DatabaseNetwork.user[43] readProbability 0.3
par DatabaseNetwork.user[43] numTables 20
par DatabaseNetwork.user[43] tableDistribution "\"lognormal\""
par DatabaseNetwork.user[43] serviceTime 0.1s
attr unit s
par DatabaseNetwork.user[43] lognormalM 1.5
par DatabaseNetwork.user[43] lognormalS 1
scalar DatabaseNetwork.user[43] totalAccesses 517
scalar DatabaseNetwork.user[43] totalReads 163
scalar DatabaseNetwork.user[43] totalWrites 354
scalar DatabaseNetwork.user[43] averageWaitTime 0.10558117317229
scalar DatabaseNetwork.user[43] accessesPerSecond 0.0517
par DatabaseNetwork.user[44] typename "\"progetto.User\""
par DatabaseNetwork.user[44] userId 44
par DatabaseNetwork.user[44] lambda 0.05
par DatabaseNetwork.user[44] readProbability 0.3
par DatabaseNetwork.user[44] numTables 20
par DatabaseNetwork.user[44] tableDistribution "\"lognormal\""
par DatabaseNetwork.user[44] serviceTime 0.1s
attr unit s
par DatabaseNetwork.user[44] lognormalM 1.5
par DatabaseNetwork.user[44] lognormalS 1
scalar DatabaseNetwork.user[44] totalAccesses 495
scalar DatabaseNetwork.user[44] totalReads 159
scalar DatabaseNetwork.user[44] totalWrites 336
scalar DatabaseNetwork.user[44] averageWaitTime 0.10364585875861
scalar DatabaseNetwork.user[44] accessesPerSecond 0.0495
par DatabaseNetwork.user[45] typename "\"progetto.User\""
par DatabaseNetwork.user[45] userId 45
par DatabaseNetwork.user[45] lambda 0.05
par DatabaseNetwork.user[45] readProbability 0.3
par DatabaseNetwork.user[45] numTables 20
par DatabaseNetwork.user[45] tableDistribution "\"lognormal\""
par DatabaseNetwork.user[45] serviceTime 0.1s
attr unit s
par DatabaseNetwork.user[45] lognormalM 1.5
par DatabaseNetwork.user[45] lognormalS 1
scalar DatabaseNetwork.user[45] totalAccesses 560
scalar DatabaseNetwork.user[45] totalReads 169
scalar DatabaseNetwork.user[45] totalWrites 391
scalar DatabaseNetwork.user[45] averageWaitTime 0.10486843541156
scalar DatabaseNetwork.user[45] accessesPerSecond 0.056
par DatabaseNetwork.user[46] typename "\"progetto.User\""
par DatabaseNetwork.user[46] userId 46
par DatabaseNetwork.user[46] lambda 0.05
par DatabaseNetwork.user[46] readProbability 0.3
par DatabaseNetwork.user[46] numTables 20
par DatabaseNetwork.user[46] tableDistribution "\"lognormal\""
par DatabaseNetwork.user[46] serviceTime 0.1s
attr unit s
par DatabaseNetwork.user[46] lognormalM 1.5
par DatabaseNetwork.user[46] lognormalS 1
scalar DatabaseNetwork.user[46] totalAccesses 463
scalar DatabaseNetwork.user[46] totalReads 151
scalar DatabaseNetwork.user[46] totalWrites 312
scalar DatabaseNetwork.user[46] averageWaitTime 0.10490066800174
scalar DatabaseNetwork.user[46] accessesPerSecond 0.0463
par DatabaseNetwork.user[47] typename "\"progetto.User\""
par DatabaseNetwork.user[47] userId 47
par DatabaseNetwork.user[47] lambda 0.05
par DatabaseNetwork.user[47] readProbability 0.3
par DatabaseNetwork.user[47] numTables 20
par DatabaseNetwork.user[47] tableDistribution "\"lognormal\""
par DatabaseNetwork.user[47] serviceTime 0.1s
attr unit s
par DatabaseNetwork.user[47] lognormalM 1.5
par DatabaseNetwork.user[47] lognormalS 1
scalar DatabaseNetwork.user[47] totalAccesses 486
scalar DatabaseNetwork.user[47] totalReads 160
scalar DatabaseNetwork.user[47] totalWrites 326
scalar DatabaseNetwork.user[47] averageWaitTime 0.10404023479049
scalar DatabaseNetwork.user[47] accessesPerSecond 0.0486
par DatabaseNetwork.user[48] typename "\"progetto.User\""
par DatabaseNetwork.user[48] userId 48
par DatabaseNetwork.user[48] lambda 0.05
par DatabaseNetwork.user[48] readProbability 0.3
par DatabaseNetwork.user[48] numTables 20
par DatabaseNetwork.user[48] tableDistribution "\"lognormal\""
par DatabaseNetwork.user[48] serviceTime 0.1s
attr unit s
par DatabaseNetwork.user[48] lognormalM 1.5
par DatabaseNetwork.user[48] lognormalS 1
scalar DatabaseNetwork.user[48] totalAccesses 497
scalar DatabaseNetwork.user[48] totalReads 148
scalar DatabaseNetwork.user[48] totalWrites 349
scalar DatabaseNetwork.user[48] averageWaitTime 0.10331230703086
scalar DatabaseNetwork.user[48] accessesPerSecond 0.0497
par DatabaseNetwork.user[49] typename "\"progetto.User\""
par DatabaseNetwork.user[49] userId 49
par DatabaseNetwork.user[49] lambda 0.05
par DatabaseNetwork.user[49] readProbability 0.3
par DatabaseNetwork.user[49] numTables 20
par DatabaseNetwork.user[49] tableDistribution "\"lognormal\""
par DatabaseNetwork.user[49] serviceTime 0.1s
attr unit s
par DatabaseNetwork.user[49] lognormalM 1.5
par DatabaseNetwork.user[49] lognormalS 1
scalar DatabaseNetwork.user[49] totalAccesses 489
scalar DatabaseNetwork.user[49] totalReads 143
scalar DatabaseNetwork.user[49] totalWrites 346
scalar DatabaseNetwork.user[49] averageWaitTime 0.10560911808821
scalar DatabaseNetwork.user[49] accessesPerSecond 0.0489
par DatabaseNetwork.user[50] typename "\"progetto.User\""
par DatabaseNetwork.user[50] userId 50
par DatabaseNetwork.user[50] lambda 0.05
par DatabaseNetwork.user[50] readProbability 0.3
par DatabaseNetwork.user[50] numTables 20
par DatabaseNetwork.user[50] tableDistribution "\"lognormal\""
par DatabaseNetwork.user[50] serviceTime 0.1s
attr unit s
par DatabaseNetwork.user[50] lognormalM 1.5
par DatabaseNetwork.user[50] lognormalS 1
scalar DatabaseNetwork.user[50] totalAccesses 497
scalar DatabaseNetwork.user[50] totalReads 153
scalar DatabaseNetwork.user[50] totalWrites 344
scalar DatabaseNetwork.user[50] averageWaitTime 0.10443737175459
scalar DatabaseNetwork.user[50] accessesPerSecond 0.0497
par DatabaseNetwork.user[51] typename "\"progetto.User\""
par DatabaseNetwork.user[51] userId 51
par DatabaseNetwork.user[51] lambda 0.05
par DatabaseNetwork.user[51] readProbability 0.3
par DatabaseNetwork.user[51] numTables 20
par DatabaseNetwork.user[51] tableDistribution "\"lognormal\""
par DatabaseNetwork.user[51] serviceTime 0.1s
attr unit s
par DatabaseNetwork.user[51] lognormalM 1.5
par DatabaseNetwork.user[51] lognormalS 1
scalar DatabaseNetwork.user[51] totalAccesses 496
scalar DatabaseNetwork.user[51] totalReads 142
scalar DatabaseNetwork.user[51] totalWrites 354
scalar DatabaseNetwork.user[51] averageWaitTime 0.10483391584436
scalar DatabaseNetwork.user[51] accessesPerSecond 0.0496
par DatabaseNetwork.user[52] typename "\"progetto.User\""
par DatabaseNetwork.user[52] userId 52
par DatabaseNetwork.user[52] lambda 0.05
par DatabaseNetwork.user[52] readProbability 0.3
par DatabaseNetwork.user[52] numTables 20
par DatabaseNetwork.user[52] tableDistribution "\"lognormal\""
par DatabaseNetwork.user[52] serviceTime 0.1s
attr unit s
par DatabaseNetwork.user[52] lognormalM 1.5
par DatabaseNetwork.user[52] lognormalS 1
scalar DatabaseNetwork.user[52] totalAccesses 496
scalar DatabaseNetwork.user[52] totalReads 143
scalar DatabaseNetwork.user[52] totalWrites 353
scalar DatabaseNetwork.user[52] averageWaitTime 0.10473689212963
scalar DatabaseNetwork.user[52] accessesPerSecond 0.0496
par DatabaseNetwork.user[53] typename "\"progetto.User\""
par DatabaseNetwork.user[53] userId 53
par DatabaseNetwork.user[53] lambda 0.05
par DatabaseNetwork.user[53] readProbability 0.3
par DatabaseNetwork.user[53] numTables 20
par DatabaseNetwork.user[53] tableDistribution "\"lognormal\""
par DatabaseNetwork.user[53] serviceTime 0.1s
attr unit s
par DatabaseNetwork.user[53] lognormalM 1.5
par DatabaseNetwork.user[53] lognormalS 1
scalar DatabaseNetwork.user[53] totalAccesses 525
scalar DatabaseNetwork.user[53] totalReads 170
scalar DatabaseNetwork.user[53] totalWrites 355
scalar DatabaseNetwork.user[53] averageWaitTime 0.1027875326297
scalar DatabaseNetwork.user[53] accessesPerSecond 0.0525
par DatabaseNetwork.user[54] typename "\"progetto.User\""
par DatabaseNetwork.user[54] userId 54
par DatabaseNetwork.user[54] lambda 0.05
par DatabaseNetwork.user[54] readProbability 0.3
par DatabaseNetwork.user[54] numTables 20
par DatabaseNetwork.user[54] tableDistribution "\"lognormal\""
par DatabaseNetwork.user[54] serviceTime 0.1s
attr unit s
par DatabaseNetwork.user[54] lognormalM 1.5
par DatabaseNetwork.user[54] lognormalS 1
scalar DatabaseNetwork.user[54] totalAccesses 489
scalar DatabaseNetwork.user[54] totalReads 151
scalar DatabaseNetwork.user[54] totalWrites 338
scalar DatabaseNetwork.user[54] averageWaitTime 0.10480482041677
scalar DatabaseNetwork.user[54] accessesPerSecond 0.0489
par DatabaseNetwork.user[55] typename "\"progetto.User\""
par DatabaseNetwork.user[55] userId 55
par DatabaseNetwork.user[55] lambda 0.05
par DatabaseNetwork.user[55] readProbability 0.3
par DatabaseNetwork.user[55] numTables 20
par DatabaseNetwork.user[55] tableDistribution "\"lognormal\""
par DatabaseNetwork.user[55] serviceTime 0.1s
attr unit s
par DatabaseNetwork.user[55] lognormalM 1.5
par DatabaseNetwork.user[55] lognormalS 1
scalar DatabaseNetwork.user[55] totalAccesses 484
scalar DatabaseNetwork.user[55] totalReads 156
scalar DatabaseNetwork.user[55] totalWrites 328
scalar DatabaseNetwork.user[55] averageWaitTime 0.10356352906218
scalar DatabaseNetwork.user[55] accessesPerSecond 0.0484
par DatabaseNetwork.user[56] typename "\"progetto.User\""
par DatabaseNetwork.user[56] userId 56
par DatabaseNetwork.user[56] lambda 0.05
par DatabaseNetwork.user[56] readProbability 0.3
par DatabaseNetwork.user[56] numTables 20
par DatabaseNetwork.user[56] tableDistribution "\"lognormal\""
par DatabaseNetwork.user[56] serviceTime 0.1s
attr unit s
par DatabaseNetwork.user[56] lognormalM 1.5
par DatabaseNetwork.user[56] lognormalS 1
scalar DatabaseNetwork.user[56] totalAccesses 535
scalar DatabaseNetwork.user[56] totalReads 155
scalar DatabaseNetwork.user[56] totalWrites 380
scalar DatabaseNetwork.user[56] averageWaitTime 0.10350809680314
scalar DatabaseNetwork.user[56] accessesPerSecond 0.0535
par DatabaseNetwork.user[57] typename "\"progetto.User\""
par DatabaseNetwork.user[57] userId 57
par DatabaseNetwork.user[57] lambda 0.05
par DatabaseNetwork.user[57] readProbability 0.3
par DatabaseNetwork.user[57] numTables 20
par DatabaseNetwork.user[57] tableDistribution "\"lognormal\""
par DatabaseNetwork.user[57] serviceTime 0.1s
attr unit s
par DatabaseNetwork.user[57] lognormalM 1.5
par DatabaseNetwork.user[57] lognormalS 1
scalar DatabaseNetwork.user[57] totalAccesses 511
scalar DatabaseNetwork.user[57] totalReads 158
scalar DatabaseNetwork.user[57] totalWrites 353
scalar DatabaseNetwork.user[57] averageWaitTime 0.10384771330542
scalar DatabaseNetwork.user[57] accessesPerSecond 0.0511
par DatabaseNetwork.user[58] typename "\"progetto.User\""
par DatabaseNetwork.user[58] userId 58
par DatabaseNetwork.user[58] lambda 0.05
par DatabaseNetwork.user[58] readProbability 0.3
par DatabaseNetwork.user[58] numTables 20
par DatabaseNetwork.user[58] tableDistribution "\"lognormal\""
par DatabaseNetwork.user[58] serviceTime 0.1s
attr unit s
par DatabaseNetwork.user[58] lognormalM 1.5
par DatabaseNetwork.user[58] lognormalS 1
scalar DatabaseNetwork.user[58] totalAccesses 491
scalar DatabaseNetwork.user[58] totalReads 172
scalar DatabaseNetwork.user[58] totalWrites 319
scalar DatabaseNetwork.user[58] averageWaitTime 0.10386241725678
scalar DatabaseNetwork.user[58] accessesPerSecond 0.0491
par DatabaseNetwork.user[59] typename "\"progetto.User\""
par DatabaseNetwork.user[59] userId 59
par DatabaseNetwork.user[59] lambda 0.05
par DatabaseNetwork.user[59] readProbability 0.3
par DatabaseNetwork.user[59] numTables 20
par DatabaseNetwork.user[59] tableDistribution "\"lognormal\""
par DatabaseNetwork.user[59] serviceTime 0.1s
attr unit s
par DatabaseNetwork.user[59] lognormalM 1.5
par DatabaseNetwork.user[59] lognormalS 1
scalar DatabaseNetwork.user[59] totalAccesses 504
scalar DatabaseNetwork.user[59] totalReads 162
scalar DatabaseNetwork.user[59] totalWrites 342
scalar DatabaseNetwork.user[59] averageWaitTime 0.10382672367117
scalar DatabaseNetwork.user[59] accessesPerSecond 0.0504
par DatabaseNetwork.user[60] typename "\"progetto.User\""
par DatabaseNetwork.user[60] userId 60
par DatabaseNetwork.user[60] lambda 0.05
par DatabaseNetwork.user[60] readProbability 0.3
par DatabaseNetwork.user[60] numTables 20
par DatabaseNetwork.user[60] tableDistribution "\"lognormal\""
par DatabaseNetwork.user[60] serviceTime 0.1s
attr unit s
par DatabaseNetwork.user[60] lognormalM 1.5
par DatabaseNetwork.user[60] lognormalS 1
scalar DatabaseNetwork.user[60] totalAccesses 521
scalar DatabaseNetwork.user[60] totalReads 156
scalar DatabaseNetwork.user[60] totalWrites 365
scalar DatabaseNetwork.user[60] averageWaitTime 0.10553170745834
scalar DatabaseNetwork.user[60] accessesPerSecond 0.0521
par DatabaseNetwork.user[61] typename "\"progetto.User\""
par DatabaseNetwork.user[61] userId 61
par DatabaseNetwork.user[61] lambda 0.05
par DatabaseNetwork.user[61] readProbability 0.3
par DatabaseNetwork.user[61] numTables 20
par DatabaseNetwork.user[61] tableDistribution "\"lognormal\""
par DatabaseNetwork.user[61] serviceTime 0.1s
attr unit s
par DatabaseNetwork.user[61] lognormalM 1.5
par DatabaseNetwork.user[61] lognormalS 1
scalar DatabaseNetwork.user[61] totalAccesses 437
scalar DatabaseNetwork.user[61] totalReads 132
scalar DatabaseNetwork.user[61] totalWrites 305
scalar DatabaseNetwork.user[61] averageWaitTime 0.10545373157172
scalar DatabaseNetwork.user[61] accessesPerSecond 0.0437
par DatabaseNetwork.user[62] typename "\"progetto.User\""
par DatabaseNetwork.user[62] userId 62
par DatabaseNetwork.user[62] lambda 0.05
par DatabaseNetwork.user[62] readProbability 0.3
par DatabaseNetwork.user[62] numTables 20
par DatabaseNetwork.user[62] tableDistribution "\"lognormal\""
par DatabaseNetwork.user[62] serviceTime 0.1s
attr unit s
par DatabaseNetwork.user[62] lognormalM 1.5
par DatabaseNetwork.user[62] lognormalS 1
scalar DatabaseNetwork.user[62] totalAccesses 504
scalar DatabaseNetwork.user[62] totalReads 147
scalar DatabaseNetwork.user[62] totalWrites 357
scalar DatabaseNetwork.user[62] averageWaitTime 0.10359800345927
scalar DatabaseNetwork.user[62] accessesPerSecond 0.0504
par DatabaseNetwork.user[63] typename "\"progetto.User\""
par DatabaseNetwork.user[63] userId 63
par DatabaseNetwork.user[63] lambda 0.05
par DatabaseNetwork.user[63] readProbability 0.3
par DatabaseNetwork.user[63] numTables 20
par DatabaseNetwork.user[63] tableDistribution "\"lognormal\""
par DatabaseNetwork.user[63] serviceTime 0.1s
attr unit s
par DatabaseNetwork.user[63] lognormalM 1.5
par DatabaseNetwork.user[63] lognormalS 1
scalar DatabaseNetwork.user[63] totalAccesses 534
scalar DatabaseNetwork.user[63] totalReads 150
scalar DatabaseNetwork.user[63] totalWrites 384
scalar DatabaseNetwork.user[63] averageWaitTime 0.10448254841287
scalar DatabaseNetwork.user[63] accessesPerSecond 0.0534
par DatabaseNetwork.user[64] typename "\"progetto.User\""
par DatabaseNetwork.user[64] userId 64
par DatabaseNetwork.user[64] lambda 0.05
par DatabaseNetwork.user[64] readProbability 0.3
par DatabaseNetwork.user[64] numTables 20
par DatabaseNetwork.user[64] tableDistribution "\"lognormal\""
par DatabaseNetwork.user[64] serviceTime 0.1s
attr unit s
par DatabaseNetwork.user[64] lognormalM 1.5
par DatabaseNetwork.user[64] lognormalS 1
scalar DatabaseNetwork.user[64] totalAccesses 507
scalar DatabaseNetwork.user[64] totalReads 167
scalar DatabaseNetwork.user[64] totalWrites 340
scalar DatabaseNetwork.user[64] averageWaitTime 0.10411591781633
scalar DatabaseNetwork.user[64] accessesPerSecond 0.0507
par DatabaseNetwork.user[65] typename "\"progetto.User\""
par DatabaseNetwork.user[65] userId 65
par DatabaseNetwork.user[65] lambda 0.05
par DatabaseNetwork.user[65] readProbability 0.3
par DatabaseNetwork.user[65] numTables 20
par DatabaseNetwork.user[65] tableDistribution "\"lognormal\""
par DatabaseNetwork.user[65] serviceTime 0.1s
attr unit s
par DatabaseNetwork.user[65] lognormalM 1.5
par DatabaseNetwork.user[65] lognormalS 1
scalar DatabaseNetwork.user[65] totalAccesses 513
scalar DatabaseNetwork.user[65] totalReads 158
scalar DatabaseNetwork.user[65] totalWrites 355
scalar DatabaseNetwork.user[65] averageWaitTime 0.10438654283669
scalar DatabaseNetwork.user[65] accessesPerSecond 0.0513
par DatabaseNetwork.user[66] typename "\"progetto.User\""
par DatabaseNetwork.user[66] userId 66
par DatabaseNetwork.user[66] lambda 0.05
par DatabaseNetwork.user[66] readProbability 0.3
par DatabaseNetwork.user[66] numTables 20
par DatabaseNetwork.user[66] tableDistribution "\"lognormal\""
par DatabaseNetwork.user[66] serviceTime 0.1s
attr unit s
par DatabaseNetwork.user[66] lognormalM 1.5
par DatabaseNetwork.user[66] lognormalS 1
scalar DatabaseNetwork.user[66] totalAccesses 474
scalar DatabaseNetwork.user[66] totalReads 143
scalar DatabaseNetwork.user[66] totalWrites 331
scalar DatabaseNetwork.user[66] averageWaitTime 0.10397317507198
scalar DatabaseNetwork.user[66] accessesPerSecond 0.0474
par DatabaseNetwork.user[67] typename "\"progetto.User\""
par DatabaseNetwork.user[67] userId 67
par DatabaseNetwork.user[67] lambda 0.05
par DatabaseNetwork.user[67] readProbability 0.3
par DatabaseNetwork.user[67] numTables 20
par DatabaseNetwork.user[67] tableDistribution "\"lognormal\""
par DatabaseNetwork.user[67] serviceTime 0.1s
attr unit s
par DatabaseNetwork.user[67] lognormalM 1.5
par DatabaseNetwork.user[67] lognormalS 1
scalar DatabaseNetwork.user[67] totalAccesses 479
scalar DatabaseNetwork.user[67] totalReads 154
scalar DatabaseNetwork.user[67] totalWrites 325
scalar DatabaseNetwork.user[67] averageWaitTime 0.10471963683646
scalar DatabaseNetwork.user[67] accessesPerSecond 0.0479
par DatabaseNetwork.user[68] typename "\"progetto.User\""
par DatabaseNetwork.user[68] userId 68
par DatabaseNetwork.user[68] lambda 0.05
par DatabaseNetwork.user[68] readProbability 0.3
par DatabaseNetwork.user[68] numTables 20
par DatabaseNetwork.user[68] tableDistribution "\"lognormal\""
par DatabaseNetwork.user[68] serviceTime 0.1s
attr unit s
par DatabaseNetwork.user[68] lognormalM 1.5
par DatabaseNetwork.user[68] lognormalS 1
scalar DatabaseNetwork.user[68] totalAccesses 495
scalar DatabaseNetwork.user[68] totalReads 148
scalar DatabaseNetwork.user[68] totalWrites 347
scalar DatabaseNetwork.user[68] averageWaitTime 0.1037344705641
scalar DatabaseNetwork.user[68] accessesPerSecond 0.0495
par DatabaseNetwork.user[69] typename "\"progetto.User\""
par DatabaseNetwork.user[69] userId 69
par DatabaseNetwork.user[69] lambda 0.05
par DatabaseNetwork.user[69] readProbability 0.3
par DatabaseNetwork.user[69] numTables 20
par DatabaseNetwork.user[69] tableDistribution "\"lognormal\""
par DatabaseNetwork.user[69] serviceTime 0.1s
attr unit s
par DatabaseNetwork.user[69] lognormalM 1.5
par DatabaseNetwork.user[69] lognormalS 1
scalar DatabaseNetwork.user[69] totalAccesses 491
scalar DatabaseNetwork.user[69] totalReads 140
scalar DatabaseNetwork.user[69] totalWrites 351
scalar DatabaseNetwork.user[69] averageWaitTime 0.10488251503968
scalar DatabaseNetwork.user[69] accessesPerSecond 0.0491
par DatabaseNetwork.user[70] typename "\"progetto.User\""
par DatabaseNetwork.user[70] userId 70
par DatabaseNetwork.user[70] lambda 0.05
par DatabaseNetwork.user[70] readProbability 0.3
par DatabaseNetwork.user[70] numTables 20
par DatabaseNetwork.user[70] tableDistribution "\"lognormal\""
par DatabaseNetwork.user[70] serviceTime 0.1s
attr unit s
par DatabaseNetwork.user[70] lognormalM 1.5
par DatabaseNetwork.user[70] lognormalS 1
scalar DatabaseNetwork.user[70] totalAccesses 517
scalar DatabaseNetwork.user[70] totalReads 164
scalar DatabaseNetwork.user[70] totalWrites 353
scalar DatabaseNetwork.user[70] averageWaitTime 0.10444067739205
scalar DatabaseNetwork.user[70] accessesPerSecond 0.0517
par DatabaseNetwork.user[71] typename "\"progetto.User\""
par DatabaseNetwork.user[71] userId 71
par DatabaseNetwork.user[71] lambda 0.05
par DatabaseNetwork.user[71] readProbability 0.3
par DatabaseNetwork.user[71] numTables 20
par DatabaseNetwork.user[71] tableDistribution "\"lognormal\""
par DatabaseNetwork.user[71] serviceTime 0.1s
attr unit s
par DatabaseNetwork.user[71] lognormalM 1.5
par DatabaseNetwork.user[71] lognormalS 1
scalar DatabaseNetwork.user[71] totalAccesses 513
scalar DatabaseNetwork.user[71] totalReads 150
scalar DatabaseNetwork.user[71] totalWrites 363
scalar DatabaseNetwork.user[71] averageWaitTime 0.10449549798815
scalar DatabaseNetwork.user[71] accessesPerSecond 0.0513
par DatabaseNetwork.user[72] typename "\"progetto.User\""
par DatabaseNetwork.user[72] userId 72
par DatabaseNetwork.user[72] lambda 0.05
par DatabaseNetwork.user[72] readProbability 0.3
par DatabaseNetwork.user[72] numTables 20
par DatabaseNetwork.user[72] tableDistribution "\"lognormal\""
par DatabaseNetwork.user[72] serviceTime 0.1s
attr unit s
par DatabaseNetwork.user[72] lognormalM 1.5
par DatabaseNetwork.user[72] lognormalS 1
scalar DatabaseNetwork.user[72] totalAccesses 493
scalar DatabaseNetwork.user[72] totalReads 161
scalar DatabaseNetwork.user[72] totalWrites 332
scalar DatabaseNetwork.user[72] averageWaitTime 0.10540351607352
scalar DatabaseNetwork.user[72] accessesPerSecond 0.0493
par DatabaseNetwork.user[73] typename "\"progetto.User\""
par DatabaseNetwork.user[73] userId 73
par DatabaseNetwork.user[73] lambda 0.05
par DatabaseNetwork.user[73] readProbability 0.3
par DatabaseNetwork.user[73] numTables 20
par DatabaseNetwork.user[73] tableDistribution "\"lognormal\""
par DatabaseNetwork.user[73] serviceTime 0.1s
attr unit s
par DatabaseNetwork.user[73] lognormalM 1.5
par DatabaseNetwork.user[73] lognormalS 1
scalar DatabaseNetwork.user[73] totalAccesses 525
scalar DatabaseNetwork.user[73] totalReads 167
scalar DatabaseNetwork.user[73] totalWrites 358
scalar DatabaseNetwork.user[73] averageWaitTime 0.1041387621262
scalar DatabaseNetwork.user[73] accessesPerSecond 0.0525
par DatabaseNetwork.user[74] typename "\"progetto.User\""
par DatabaseNetwork.user[74] userId 74
par DatabaseNetwork.user[74] lambda 0.05
par DatabaseNetwork.user[74] readProbability 0.3
par DatabaseNetwork.user[74] numTables 20
par DatabaseNetwork.user[74] tableDistribution "\"lognormal\""
par DatabaseNetwork.user[74] serviceTime 0.1s
attr unit s
par DatabaseNetwork.user[74] lognormalM 1.5
par DatabaseNetwork.user[74] lognormalS 1
scalar DatabaseNetwork.user[74] totalAccesses 487
scalar DatabaseNetwork.user[74] totalReads 149
scalar DatabaseNetwork.user[74] totalWrites 338
scalar DatabaseNetwork.user[74] averageWaitTime 0.10450019915206
scalar DatabaseNetwork.user[74] accessesPerSecond 0.0487
par DatabaseNetwork.user[75] typename "\"progetto.User\""
par DatabaseNetwork.user[75] userId 75
par DatabaseNetwork.user[75] lambda 0.05
par DatabaseNetwork.user[75] readProbability 0.3
par DatabaseNetwork.user[75] numTables 20
par DatabaseNetwork.user[75] tableDistribution "\"lognormal\""
par DatabaseNetwork.user[75] serviceTime 0.1s
attr unit s
par DatabaseNetwork.user[75] lognormalM 1.5
par DatabaseNetwork.user[75] lognormalS 1
scalar DatabaseNetwork.user[75] totalAccesses 514
scalar DatabaseNetwork.user[75] totalReads 178
scalar DatabaseNetwork.user[75] totalWrites 336
scalar DatabaseNetwork.user[75] averageWaitTime 0.10603934159146
scalar DatabaseNetwork.user[75] accessesPerSecond 0.0514
par DatabaseNetwork.user[76] typename "\"progetto.User\""
par DatabaseNetwork.user[76] userId 76
par DatabaseNetwork.user[76] lambda 0.05
par DatabaseNetwork.user[76] readProbability 0.3
par DatabaseNetwork.user[76] numTables 20
par DatabaseNetwork.user[76] tableDistribution "\"lognormal\""
par DatabaseNetwork.user[76] serviceTime 0.1s
attr unit s
par DatabaseNetwork.user[76] lognormalM 1.5
par DatabaseNetwork.user[76] lognormalS 1
scalar DatabaseNetwork.user[76] totalAccesses 496
scalar DatabaseNetwork.user[76] totalReads 172
scalar DatabaseNetwork.user[76] totalWrites 324
scalar DatabaseNetwork.user[76] averageWaitTime 0.10413887479886
scalar DatabaseNetwork.user[76] accessesPerSecond 0.0496
par DatabaseNetwork.user[77] typename "\"progetto.User\""
par DatabaseNetwork.user[77] userId 77
par DatabaseNetwork.user[77] lambda 0.05
par DatabaseNetwork.user[77] readProbability 0.3
par DatabaseNetwork.user[77] numTables 20
par DatabaseNetwork.user[77] tableDistribution "\"lognormal\""
par DatabaseNetwork.user[77] serviceTime 0.1s
attr unit s
par DatabaseNetwork.user[77] lognormalM 1.5
par DatabaseNetwork.user[77] lognormalS 1
scalar DatabaseNetwork.user[77] totalAccesses 490
scalar DatabaseNetwork.user[77] totalReads 142
scalar DatabaseNetwork.user[77] totalWrites 348
scalar DatabaseNetwork.user[77] averageWaitTime 0.10451225512991
scalar DatabaseNetwork.user[77] accessesPerSecond 0.049
par DatabaseNetwork.user[78] typename "\"progetto.User\""
par DatabaseNetwork.user[78] userId 78
par DatabaseNetwork.user[78] lambda 0.05
par DatabaseNetwork.user[78] readProbability 0.3
par DatabaseNetwork.user[78] numTables 20
par DatabaseNetwork.user[78] tableDistribution "\"lognormal\""
par DatabaseNetwork.user[78] serviceTime 0.1s
attr unit s
par DatabaseNetwork.user[78] lognormalM 1.5
par DatabaseNetwork.user[78] lognormalS 1
scalar DatabaseNetwork.user[78] totalAccesses 442
scalar DatabaseNetwork.user[78] totalReads 123
scalar DatabaseNetwork.user[78] totalWrites 319
scalar DatabaseNetwork.user[78] averageWaitTime 0.10457481997152
scalar DatabaseNetwork.user[78] accessesPerSecond 0.0442
par DatabaseNetwork.user[79] typename "\"progetto.User\""
par DatabaseNetwork.user[79] userId 79
par DatabaseNetwork.user[79] lambda 0.05
par DatabaseNetwork.user[79] readProbability 0.3
par DatabaseNetwork.user[79] numTables 20
par DatabaseNetwork.user[79] tableDistribution "\"lognormal\""
par DatabaseNetwork.user[79] serviceTime 0.1s
attr unit s
par DatabaseNetwork.user[79] lognormalM 1.5
par DatabaseNetwork.user[79] lognormalS 1
scalar DatabaseNetwork.user[79] totalAccesses 503
scalar DatabaseNetwork.user[79] totalReads 163
scalar DatabaseNetwork.user[79] totalWrites 340
scalar DatabaseNetwork.user[79] averageWaitTime 0.10312553358955
scalar DatabaseNetwork.user[79] accessesPerSecond 0.0503
par DatabaseNetwork.user[80] typename "\"progetto.User\""
par DatabaseNetwork.user[80] userId 80
par DatabaseNetwork.user[80] lambda 0.05
par DatabaseNetwork.user[80] readProbability 0.3
par DatabaseNetwork.user[80] numTables 20
par DatabaseNetwork.user[80] tableDistribution "\"lognormal\""
par DatabaseNetwork.user[80] serviceTime 0.1s
attr unit s
par DatabaseNetwork.user[80] lognormalM 1.5
par DatabaseNetwork.user[80] lognormalS 1
scalar DatabaseNetwork.user[80] totalAccesses 491
scalar DatabaseNetwork.user[80] totalReads 146
scalar DatabaseNetwork.user[80] totalWrites 345
scalar DatabaseNetwork.user[80] averageWaitTime 0.10439217863706
scalar DatabaseNetwork.user[80] accessesPerSecond 0.0491
par DatabaseNetwork.user[81] typename "\"progetto.User\""
par DatabaseNetwork.user[81] userId 81
par DatabaseNetwork.user[81] lambda 0.05
par DatabaseNetwork.user[81] readProbability 0.3
par DatabaseNetwork.user[81] numTables 20
par DatabaseNetwork.user[81] tableDistribution "\"lognormal\""
par DatabaseNetwork.user[81] serviceTime 0.1s
attr unit s
par DatabaseNetwork.user[81] lognormalM 1.5
par DatabaseNetwork.user[81] lognormalS 1
scalar DatabaseNetwork.user[81] totalAccesses 483
scalar DatabaseNetwork.user[81] totalReads 134
scalar DatabaseNetwork.user[81] totalWrites 349
scalar DatabaseNetwork.user[81] averageWaitTime 0.10625416269465
scalar DatabaseNetwork.user[81] accessesPerSecond 0.0483
par DatabaseNetwork.user[82] typename "\"progetto.User\""
par DatabaseNetwork.user[82] userId 82
par DatabaseNetwork.user[82] lambda 0.05
par DatabaseNetwork.user[82] readProbability 0.3
par DatabaseNetwork.user[82] numTables 20
par DatabaseNetwork.user[82] tableDistribution "\"lognormal\""
par DatabaseNetwork.user[82] serviceTime 0.1s
attr unit s
par DatabaseNetwork.user[82] lognormalM 1.5
par DatabaseNetwork.user[82] lognormalS 1
scalar DatabaseNetwork.user[82] totalAccesses 526
scalar DatabaseNetwork.user[82] totalReads 154
scalar DatabaseNetwork.user[82] totalWrites 372
scalar DatabaseNetwork.user[82] averageWaitTime 0.10467760327435
scalar DatabaseNetwork.user[82] accessesPerSecond 0.0526
par DatabaseNetwork.user[83] typename "\"progetto.User\""
par DatabaseNetwork.user[83] userId 83
par DatabaseNetwork.user[83] lambda 0.05
par DatabaseNetwork.user[83] readProbability 0.3
par DatabaseNetwork.user[83] numTables 20
par DatabaseNetwork.user[83] tableDistribution "\"lognormal\""
par DatabaseNetwork.user[83] serviceTime 0.1s
attr unit s
par DatabaseNetwork.user[83] lognormalM 1.5
par DatabaseNetwork.user[83] lognormalS 1
scalar DatabaseNetwork.user[83] totalAccesses 502
scalar DatabaseNetwork.user[83] totalReads 143
scalar DatabaseNetwork.user[83] totalWrites 359
scalar DatabaseNetwork.user[83] averageWaitTime 0.10339338518855
scalar DatabaseNetwork.user[83] accessesPerSecond 0.0502
par DatabaseNetwork.user[84] typename "\"progetto.User\""
par DatabaseNetwork.user[84] userId 84
par DatabaseNetwork.user[84] lambda 0.05
par DatabaseNetwork.user[84] readProbability 0.3
par DatabaseNetwork.user[84] numTables 20
par DatabaseNetwork.user[84] tableDistribution "\"lognormal\""
par DatabaseNetwork.user[84] serviceTime 0.1s
attr unit s
par DatabaseNetwork.user[84] lognormalM 1.5
par DatabaseNetwork.user[84] lognormalS 1
scalar DatabaseNetwork.user[84] totalAccesses 496
scalar DatabaseNetwork.user[84] totalReads 170
scalar DatabaseNetwork.user[84] totalWrites 326
scalar DatabaseNetwork.user[84] averageWaitTime 0.10451784712918
scalar DatabaseNetwork.user[84] accessesPerSecond 0.0496
par DatabaseNetwork.user[85] typename "\"progetto.User\""
par DatabaseNetwork.user[85] userId 85
par DatabaseNetwork.user[85] lambda 0.05
par DatabaseNetwork.user[85] readProbability 0.3
par DatabaseNetwork.user[85] numTables 20
par DatabaseNetwork.user[85] tableDistribution "\"lognormal\""
par DatabaseNetwork.user[85] serviceTime 0.1s
attr unit s
par DatabaseNetwork.user[85] lognormalM 1.5
par DatabaseNetwork.user[85] lognormalS 1
scalar DatabaseNetwork.user[85] totalAccesses 512
scalar DatabaseNetwork.user[85] totalReads 139
scalar DatabaseNetwork.user[85] totalWrites 373
scalar DatabaseNetwork.user[85] averageWaitTime 0.10477677413614
scalar DatabaseNetwork.user[85] accessesPerSecond 0.0512
par DatabaseNetwork.user[86] typename "\"progetto.User\""
par DatabaseNetwork.user[86] userId 86
par DatabaseNetwork.user[86] lambda 0.05
par DatabaseNetwork.user[86] readProbability 0.3
par DatabaseNetwork.user[86] numTables 20
par DatabaseNetwork.user[86] tableDistribution "\"lognormal\""
par DatabaseNetwork.user[86] serviceTime 0.1s
attr unit s
par DatabaseNetwork.user[86] lognormalM 1.5
par DatabaseNetwork.user[86] lognormalS 1
scalar DatabaseNetwork.user[86] totalAccesses 508
scalar DatabaseNetwork.user[86] totalReads 154
scalar DatabaseNetwork.user[86] totalWrites 354
scalar DatabaseNetwork.user[86] averageWaitTime 0.10548052260541
scalar DatabaseNetwork.user[86] accessesPerSecond 0.0508
par DatabaseNetwork.user[87] typename "\"progetto.User\""
par DatabaseNetwork.user[87] userId 87
par DatabaseNetwork.user[87] lambda 0.05
par DatabaseNetwork.user[87] readProbability 0.3
par DatabaseNetwork.user[87] numTables 20
par DatabaseNetwork.user[87] tableDistribution "\"lognormal\""
par DatabaseNetwork.user[87] serviceTime 0.1s
attr unit s
par DatabaseNetwork.user[87] lognormalM 1.5
par DatabaseNetwork.user[87] lognormalS 1
scalar DatabaseNetwork.user[87] totalAccesses 473
scalar DatabaseNetwork.user[87] totalReads 138
scalar DatabaseNetwork.user[87] totalWrites 335
scalar DatabaseNetwork.user[87] averageWaitTime 0.10428673451803
scalar DatabaseNetwork.user[87] accessesPerSecond 0.0473
par DatabaseNetwork.user[88] typename "\"progetto.User\""
par DatabaseNetwork.user[88] userId 88
par DatabaseNetwork.user[88] lambda 0.05
par DatabaseNetwork.user[88] readProbability 0.3
par DatabaseNetwork.user[88] numTables 20
par DatabaseNetwork.user[88] tableDistribution "\"lognormal\""
par DatabaseNetwork.user[88] serviceTime 0.1s
attr unit s
par DatabaseNetwork.user[88] lognormalM 1.5
par DatabaseNetwork.user[88] lognormalS 1
scalar DatabaseNetwork.user[88] totalAccesses 531
scalar DatabaseNetwork.user[88] totalReads 177
scalar DatabaseNetwork.user[88] totalWrites 354
scalar DatabaseNetwork.user[88] averageWaitTime 0.10453969366578
scalar DatabaseNetwork.user[88] accessesPerSecond 0.0531
par DatabaseNetwork.user[89] typename "\"progetto.User\""
par DatabaseNetwork.user[89] userId 89
par DatabaseNetwork.user[89] lambda 0.05
par DatabaseNetwork.user[89] readProbability 0.3
par DatabaseNetwork.user[89] numTables 20
par DatabaseNetwork.user[89] tableDistribution "\"lognormal\""
par DatabaseNetwork.user[89] serviceTime 0.1s
attr unit s
par DatabaseNetwork.user[89] lognormalM 1.5
par DatabaseNetwork.user[89] lognormalS 1
scalar DatabaseNetwork.user[89] totalAccesses 497
scalar DatabaseNetwork.user[89] totalReads 165
scalar DatabaseNetwork.user[89] totalWrites 332
scalar DatabaseNetwork.user[89] averageWaitTime 0.10430212612339
scalar DatabaseNetwork.user[89] accessesPerSecond 0.0497
par DatabaseNetwork.user[90] typename "\"progetto.User\""
par DatabaseNetwork.user[90] userId 90
par DatabaseNetwork.user[90] lambda 0.05
par DatabaseNetwork.user[90] readProbability 0.3
par DatabaseNetwork.user[90] numTables 20
par DatabaseNetwork.user[90] tableDistribution "\"lognormal\""
par DatabaseNetwork.user[90] serviceTime 0.1s
attr unit s
par DatabaseNetwork.user[90] lognormalM 1.5
par DatabaseNetwork.user[90] lognormalS 1
scalar DatabaseNetwork.user[90] totalAccesses 486
scalar DatabaseNetwork.user[90] totalReads 140
scalar DatabaseNetwork.user[90] totalWrites 346
scalar DatabaseNetwork.user[90] averageWaitTime 0.10388443401151
scalar DatabaseNetwork.user[90] accessesPerSecond 0.0486
par DatabaseNetwork.user[91] typename "\"progetto.User\""
par DatabaseNetwork.user[91] userId 91
par DatabaseNetwork.user[91] lambda 0.05
par DatabaseNetwork.user[91] readProbability 0.3
par DatabaseNetwork.user[91] numTables 20
par DatabaseNetwork.user[91] tableDistribution "\"lognormal\""
par DatabaseNetwork.user[91] serviceTime 0.1s
attr unit s
par DatabaseNetwork.user[91] lognormalM 1.5
par DatabaseNetwork.user[91] lognormalS 1
scalar DatabaseNetwork.user[91] totalAccesses 494
scalar DatabaseNetwork.user[91] totalReads 129
scalar DatabaseNetwork.user[91] totalWrites 365
scalar DatabaseNetwork.user[91] averageWaitTime 0.10443384898242
scalar DatabaseNetwork.user[91] accessesPerSecond 0.0494
par DatabaseNetwork.user[92] typename "\"progetto.User\""
par DatabaseNetwork.user[92] userId 92
par DatabaseNetwork.user[92] lambda 0.05
par DatabaseNetwork.user[92] readProbability 0.3
par DatabaseNetwork.user[92] numTables 20
par DatabaseNetwork.user[92] tableDistribution "\"lognormal\""
par DatabaseNetwork.user[92] serviceTime 0.1s
attr unit s
par DatabaseNetwork.user[92] lognormalM 1.5
par DatabaseNetwork.user[92] lognormalS 1
scalar DatabaseNetwork.user[92] totalAccesses 481
scalar DatabaseNetwork.user[92] totalReads 143
scalar DatabaseNetwork.user[92] totalWrites 338
scalar DatabaseNetwork.user[92] averageWaitTime 0.10464929627809
scalar DatabaseNetwork.user[92] accessesPerSecond 0.0481
par DatabaseNetwork.user[93] typename "\"progetto.User\""
par DatabaseNetwork.user[93] userId 93
par DatabaseNetwork.user[93] lambda 0.05
par DatabaseNetwork.user[93] readProbability 0.3
par DatabaseNetwork.user[93] numTables 20
par DatabaseNetwork.user[93] tableDistribution "\"lognormal\""
par DatabaseNetwork.user[93] serviceTime 0.1s
attr unit s
par DatabaseNetwork.user[93] lognormalM 1.5
par DatabaseNetwork.user[93] lognormalS 1
scalar DatabaseNetwork.user[93] totalAccesses 484
scalar DatabaseNetwork.user[93] totalReads 152
scalar DatabaseNetwork.user[93] totalWrites 332
scalar DatabaseNetwork.user[93] averageWaitTime 0.10457497398095
scalar DatabaseNetwork.user[93] accessesPerSecond 0.0484
par DatabaseNetwork.user[94] typename "\"progetto.User\""
par DatabaseNetwork.user[94] userId 94
par DatabaseNetwork.user[94] lambda 0.05
par DatabaseNetwork.user[94] readProbability 0.3
par DatabaseNetwork.user[94] numTables 20
par DatabaseNetwork.user[94] tableDistribution "\"lognormal\""
par DatabaseNetwork.user[94] serviceTime 0.1s
attr unit s
par DatabaseNetwork.user[94] lognormalM 1.5
par DatabaseNetwork.user[94] lognormalS 1
scalar DatabaseNetwork.user[94] totalAccesses 517
scalar DatabaseNetwork.user[94] totalReads 155
scalar DatabaseNetwork.user[94] totalWrites 362
scalar DatabaseNetwork.user[94] averageWaitTime 0.10489657229436
scalar DatabaseNetwork.user[94] accessesPerSecond 0.0517
par DatabaseNetwork.user[95] typename "\"progetto.User\""
par DatabaseNetwork.user[95] userId 95
par DatabaseNetwork.user[95] lambda 0.05
par DatabaseNetwork.user[95] readProbability 0.3
par DatabaseNetwork.user[95] numTables 20
par DatabaseNetwork.user[95] tableDistribution "\"lognormal\""
par DatabaseNetwork.user[95] serviceTime 0.1s
attr unit s
par DatabaseNetwork.user[95] lognormalM 1.5
par DatabaseNetwork.user[95] lognormalS 1
scalar DatabaseNetwork.user[95] totalAccesses 474
scalar DatabaseNetwork.user[95] totalReads 143
scalar DatabaseNetwork.user[95] totalWrites 331
scalar DatabaseNetwork.user[95] averageWaitTime 0.1054342055493
scalar DatabaseNetwork.user[95] accessesPerSecond 0.0474
par DatabaseNetwork.user[96] typename "\"progetto.User\""
par DatabaseNetwork.user[96] userId 96
par DatabaseNetwork.user[96] lambda 0.05
par DatabaseNetwork.user[96] readProbability 0.3
par DatabaseNetwork.user[96] numTables 20
par DatabaseNetwork.user[96] tableDistribution "\"lognormal\""
par DatabaseNetwork.user[96] serviceTime 0.1s
attr unit s
par DatabaseNetwork.user[96] lognormalM 1.5
par DatabaseNetwork.user[96] lognormalS 1
scalar DatabaseNetwork.user[96] totalAccesses 495
scalar DatabaseNetwork.user[96] totalReads 142
scalar DatabaseNetwork.user[96] totalWrites 353
scalar DatabaseNetwork.user[96] averageWaitTime 0.10513611632295
scalar DatabaseNetwork.user[96] accessesPerSecond 0.0495
par DatabaseNetwork.user[97] typename "\"progetto.User\""
par DatabaseNetwork.user[97] userId 97
par DatabaseNetwork.user[97] lambda 0.05
par DatabaseNetwork.user[97] readProbability 0.3
par DatabaseNetwork.user[97] numTables 20
par DatabaseNetwork.user[97] tableDistribution "\"lognormal\""
par DatabaseNetwork.user[97] serviceTime 0.1s
attr unit s
par DatabaseNetwork.user[97] lognormalM 1.5
par DatabaseNetwork.user[97] lognormalS 1
scalar DatabaseNetwork.user[97] totalAccesses 517
scalar DatabaseNetwork.user[97] totalReads 150
scalar DatabaseNetwork.user[97] totalWrites 367
scalar DatabaseNetwork.user[97] averageWaitTime 0.10469272766229
scalar DatabaseNetwork.user[97] accessesPerSecond 0.0517
par DatabaseNetwork.user[98] typename "\"progetto.User\""
par DatabaseNetwork.user[98] userId 98
par DatabaseNetwork.user[98] lambda 0.05
par DatabaseNetwork.user[98] readProbability 0.3
par DatabaseNetwork.user[98] numTables 20
par DatabaseNetwork.user[98] tableDistribution "\"lognormal\""
par DatabaseNetwork.user[98] serviceTime 0.1s
attr unit s
par DatabaseNetwork.user[98] lognormalM 1.5
par DatabaseNetwork.user[98] lognormalS 1
scalar DatabaseNetwork.user[98] totalAccesses 513
scalar DatabaseNetwork.user[98] totalReads 149
scalar DatabaseNetwork.user[98] totalWrites 364
scalar DatabaseNetwork.user[98] averageWaitTime 0.10539525860729
scalar DatabaseNetwork.user[98] accessesPerSecond 0.0513
par DatabaseNetwork.user[99] typename "\"progetto.User\""
par DatabaseNetwork.user[99] userId 99
par DatabaseNetwork.user[99] lambda 0.05
par DatabaseNetwork.user[99] readProbability 0.3
par DatabaseNetwork.user[99] numTables 20
par DatabaseNetwork.user[99] tableDistribution "\"lognormal\""
par DatabaseNetwork.user[99] serviceTime 0.1s
attr unit s
par DatabaseNetwork.user[99] lognormalM 1.5
par DatabaseNetwork.user[99] lognormalS 1
scalar DatabaseNetwork.user[99] totalAccesses 501
scalar DatabaseNetwork.user[99] totalReads 162
scalar DatabaseNetwork.user[99] totalWrites 339
scalar DatabaseNetwork.user[99] averageWaitTime 0.10427639430276
scalar DatabaseNetwork.user[99] accessesPerSecond 0.0501
par DatabaseNetwork.user[100] typename "\"progetto.User\""
par DatabaseNetwork.user[100] userId 100
par DatabaseNetwork.user[100] lambda 0.05
par DatabaseNetwork.user[100] readProbability 0.3
par DatabaseNetwork.user[100] numTables 20
par DatabaseNetwork.user[100] tableDistribution "\"lognormal\""
par DatabaseNetwork.user[100] serviceTime 0.1s
attr unit s
par DatabaseNetwork.user[100] lognormalM 1.5
par DatabaseNetwork.user[100] lognormalS 1
scalar DatabaseNetwork.user[100] totalAccesses 470
scalar DatabaseNetwork.user[100] totalReads 147
scalar DatabaseNetwork.user[100] totalWrites 323
scalar DatabaseNetwork.user[100] averageWaitTime 0.10489629141757
scalar DatabaseNetwork.user[100] accessesPerSecond 0.047
par DatabaseNetwork.user[101] typename "\"progetto.User\""
par DatabaseNetwork.user[101] userId 101
par DatabaseNetwork.user[101] lambda 0.05
par DatabaseNetwork.user[101] readProbability 0.3
par DatabaseNetwork.user[101] numTables 20
par DatabaseNetwork.user[101] tableDistribution "\"lognormal\""
par DatabaseNetwork.user[101] serviceTime 0.1s
attr unit s
par DatabaseNetwork.user[101] lognormalM 1.5
par DatabaseNetwork.user[101] lognormalS 1
scalar DatabaseNetwork.user[101] totalAccesses 515
scalar DatabaseNetwork.user[101] totalReads 154
scalar DatabaseNetwork.user[101] totalWrites 361
scalar DatabaseNetwork.user[101] averageWaitTime 0.10351110432024
scalar DatabaseNetwork.user[101] accessesPerSecond 0.0515
par DatabaseNetwork.user[102] typename "\"progetto.User\""
par DatabaseNetwork.user[102] userId 102
par DatabaseNetwork.user[102] lambda 0.05
par DatabaseNetwork.user[102] readProbability 0.3
par DatabaseNetwork.user[102] numTables 20
par DatabaseNetwork.user[102] tableDistribution "\"lognormal\""
par DatabaseNetwork.user[102] serviceTime 0.1s
attr unit s
par DatabaseNetwork.user[102] lognormalM 1.5
par DatabaseNetwork.user[102] lognormalS 1
scalar DatabaseNetwork.user[102] totalAccesses 499
scalar DatabaseNetwork.user[102] totalReads 162
scalar DatabaseNetwork.user[102] totalWrites 337
scalar DatabaseNetwork.user[102] averageWaitTime 0.10389828289674
scalar DatabaseNetwork.user[102] accessesPerSecond 0.0499
par DatabaseNetwork.user[103] typename "\"progetto.User\""
par DatabaseNetwork.user[103] userId 103
par DatabaseNetwork.user[103] lambda 0.05
par DatabaseNetwork.user[103] readProbability 0.3
par DatabaseNetwork.user[103] numTables 20
par DatabaseNetwork.user[103] tableDistribution "\"lognormal\""
par DatabaseNetwork.user[103] serviceTime 0.1s
attr unit s
par DatabaseNetwork.user[103] lognormalM 1.5
par DatabaseNetwork.user[103] lognormalS 1
scalar DatabaseNetwork.user[103] totalAccesses 493
scalar DatabaseNetwork.user[103] totalReads 170
scalar DatabaseNetwork.user[103] totalWrites 323
scalar DatabaseNetwork.user[103] averageWaitTime 0.10521355325393
scalar DatabaseNetwork.user[103] accessesPerSecond 0.0493
par DatabaseNetwork.user[104] typename "\"progetto.User\""
par DatabaseNetwork.user[104] userId 104
par DatabaseNetwork.user[104] lambda 0.05
par DatabaseNetwork.user[104] readProbability 0.3
par DatabaseNetwork.user[104] numTables 20
par DatabaseNetwork.user[104] tableDistribution "\"lognormal\""
par DatabaseNetwork.user[104] serviceTime 0.1s
attr unit s
par DatabaseNetwork.user[104] lognormalM 1.5
par DatabaseNetwork.user[104] lognormalS 1
scalar DatabaseNetwork.user[104] totalAccesses 493
scalar DatabaseNetwork.user[104] totalReads 146
scalar DatabaseNetwork.user[104] totalWrites 347
scalar DatabaseNetwork.user[104] averageWaitTime 0.10538449274572
scalar DatabaseNetwork.user[104] accessesPerSecond 0.0493
par DatabaseNetwork.user[105] typename "\"progetto.User\""
par DatabaseNetwork.user[105] userId 105
par DatabaseNetwork.user[105] lambda 0.05
par DatabaseNetwork.user[105] readProbability 0.3
par DatabaseNetwork.user[105] numTables 20
par DatabaseNetwork.user[105] tableDistribution "\"lognormal\""
par DatabaseNetwork.user[105] serviceTime 0.1s
attr unit s
par DatabaseNetwork.user[105] lognormalM 1.5
par DatabaseNetwork.user[105] lognormalS 1
scalar DatabaseNetwork.user[105] totalAccesses 508
scalar DatabaseNetwork.user[105] totalReads 141
scalar DatabaseNetwork.user[105] totalWrites 367
scalar DatabaseNetwork.user[105] averageWaitTime 0.10689870398461
scalar DatabaseNetwork.user[105] accessesPerSecond 0.0508
par DatabaseNetwork.user[106] typename "\"progetto.User\""
par DatabaseNetwork.user[106] userId 106
par DatabaseNetwork.user[106] lambda 0.05
par DatabaseNetwork.user[106] readProbability 0.3
par DatabaseNetwork.user[106] numTables 20
par DatabaseNetwork.user[106] tableDistribution "\"lognormal\""
par DatabaseNetwork.user[106] serviceTime 0.1s
attr unit s
par DatabaseNetwork.user[106] lognormalM 1.5
par DatabaseNetwork.user[106] lognormalS 1
scalar DatabaseNetwork.user[106] totalAccesses 479
scalar DatabaseNetwork.user[106] totalReads 146
scalar DatabaseNetwork.user[106] totalWrites 333
scalar DatabaseNetwork.user[106] averageWaitTime 0.10377143164935
scalar DatabaseNetwork.user[106] accessesPerSecond 0.0479
par DatabaseNetwork.user[107] typename "\"progetto.User\""
par DatabaseNetwork.user[107] userId 107
par DatabaseNetwork.user[107] lambda 0.05
par DatabaseNetwork.user[107] readProbability 0.3
par DatabaseNetwork.user[107] numTables 20
par DatabaseNetwork.user[107] tableDistribution "\"lognormal\""
par DatabaseNetwork.user[107] serviceTime 0.1s
attr unit s
par DatabaseNetwork.user[107] lognormalM 1.5
par DatabaseNetwork.user[107] lognormalS 1
scalar DatabaseNetwork.user[107] totalAccesses 506
scalar DatabaseNetwork.user[107] totalReads 169
scalar DatabaseNetwork.user[107] totalWrites 337
scalar DatabaseNetwork.user[107] averageWaitTime 0.10421095652219
scalar DatabaseNetwork.user[107] accessesPerSecond 0.0506
par DatabaseNetwork.user[108] typename "\"progetto.User\""
par DatabaseNetwork.user[108] userId 108
par DatabaseNetwork.user[108] lambda 0.05
par DatabaseNetwork.user[108] readProbability 0.3
par DatabaseNetwork.user[108] numTables 20
par DatabaseNetwork.user[108] tableDistribution "\"lognormal\""
par DatabaseNetwork.user[108] serviceTime 0.1s
attr unit s
par DatabaseNetwork.user[108] lognormalM 1.5
par DatabaseNetwork.user[108] lognormalS 1
scalar DatabaseNetwork.user[108] totalAccesses 477
scalar DatabaseNetwork.user[108] totalReads 140
scalar DatabaseNetwork.user[108] totalWrites 337
scalar DatabaseNetwork.user[108] averageWaitTime 0.10359564198695
scalar DatabaseNetwork.user[108] accessesPerSecond 0.0477
par DatabaseNetwork.user[109] typename "\"progetto.User\""
par DatabaseNetwork.user[109] userId 109
par DatabaseNetwork.user[109] lambda 0.05
par DatabaseNetwork.user[109] readProbability 0.3
par DatabaseNetwork.user[109] numTables 20
par DatabaseNetwork.user[109] tableDistribution "\"lognormal\""
par DatabaseNetwork.user[109] serviceTime 0.1s
attr unit s
par DatabaseNetwork.user[109] lognormalM 1.5
par DatabaseNetwork.user[109] lognormalS 1
scalar DatabaseNetwork.user[109] totalAccesses 521
scalar DatabaseNetwork.user[109] totalReads 139
scalar DatabaseNetwork.user[109] totalWrites 382
scalar DatabaseNetwork.user[109] averageWaitTime 0.10615241763182
scalar DatabaseNetwork.user[109] accessesPerSecond 0.0521
par DatabaseNetwork.user[110] typename "\"progetto.User\""
par DatabaseNetwork.user[110] userId 110
par DatabaseNetwork.user[110] lambda 0.05
par DatabaseNetwork.user[110] readProbability 0.3
par DatabaseNetwork.user[110] numTables 20
par DatabaseNetwork.user[110] tableDistribution "\"lognormal\""
par DatabaseNetwork.user[110] serviceTime 0.1s
attr unit s
par DatabaseNetwork.user[110] lognormalM 1.5
par DatabaseNetwork.user[110] lognormalS 1
scalar DatabaseNetwork.user[110] totalAccesses 544
scalar DatabaseNetwork.user[110] totalReads 162
scalar DatabaseNetwork.user[110] totalWrites 382
scalar DatabaseNetwork.user[110] averageWaitTime 0.10407510380621
scalar DatabaseNetwork.user[110] accessesPerSecond 0.0544
par DatabaseNetwork.user[111] typename "\"progetto.User\""
par DatabaseNetwork.user[111] userId 111
par DatabaseNetwork.user[111] lambda 0.05
par DatabaseNetwork.user[111] readProbability 0.3
par DatabaseNetwork.user[111] numTables 20
par DatabaseNetwork.user[111] tableDistribution "\"lognormal\""
par DatabaseNetwork.user[111] serviceTime 0.1s
attr unit s
par DatabaseNetwork.user[111] lognormalM 1.5
par DatabaseNetwork.user[111] lognormalS 1
scalar DatabaseNetwork.user[111] totalAccesses 511
scalar DatabaseNetwork.user[111] totalReads 143
scalar DatabaseNetwork.user[111] totalWrites 368
scalar DatabaseNetwork.user[111] averageWaitTime 0.10474666968667
scalar DatabaseNetwork.user[111] accessesPerSecond 0.0511
[...]
par DatabaseNetwork.user[188] lognormalS 1
scalar DatabaseNetwork.user[188] totalAccesses 507
scalar DatabaseNetwork.user[188] totalReads 141
scalar DatabaseNetwork.user[188] totalWrites 366
scalar DatabaseNetwork.user[188] averageWaitTime 0.10433299487676
scalar DatabaseNetwork.user[188] accessesPerSecond 0.0507
par DatabaseNetwork.user[189] typename "\"progetto.User\""
par DatabaseNetwork.user[189] userId 189
par DatabaseNetwork.user[189] lambda 0.05
par DatabaseNetwork.user[189] readProbability 0.3
par DatabaseNetwork.user[189] numTables 20
par DatabaseNetwork.user[189] tableDistribution "\"lognormal\""
par DatabaseNetwork.user[189] serviceTime 0.1s
attr unit s
par DatabaseNetwork.user[189] lognormalM 1.5
par DatabaseNetwork.user[189] lognormalS 1
scalar DatabaseNetwork.user[189] totalAccesses 535
scalar DatabaseNetwork.user[189] totalReads 166
scalar DatabaseNetwork.user[189] totalWrites 369
scalar DatabaseNetwork.user[189] averageWaitTime 0.10308415657438
scalar DatabaseNetwork.user[189] accessesPerSecond 0.0535
par DatabaseNetwork.user[190] typename "\"progetto.User\""
par DatabaseNetwork.user[190] userId 190
par DatabaseNetwork.user[190] lambda 0.05
par DatabaseNetwork.user[190] readProbability 0.3
par DatabaseNetwork.user[190] numTables 20
par DatabaseNetwork.user[190] tableDistribution "\"lognormal\""
par DatabaseNetwork.user[190] serviceTime 0.1s
attr unit s
par DatabaseNetwork.user[190] lognormalM 1.5
par DatabaseNetwork.user[190] lognormalS 1
scalar DatabaseNetwork.user[190] totalAccesses 494
scalar DatabaseNetwork.user[190] totalReads 125
scalar DatabaseNetwork.user[190] totalWrites 369
scalar DatabaseNetwork.user[190] averageWaitTime 0.10314459344092
scalar DatabaseNetwork.user[190] accessesPerSecond 0.0494
par DatabaseNetwork.user[191] typename "\"progetto.User\""
par DatabaseNetwork.user[191] userId 191
par DatabaseNetwork.user[191] lambda 0.05
par DatabaseNetwork.user[191] readProbability 0.3
par DatabaseNetwork.user[191] numTables 20
par DatabaseNetwork.user[191] tableDistribution "\"lognormal\""
par DatabaseNetwork.user[191] serviceTime 0.1s
attr unit s
par DatabaseNetwork.user[191] lognormalM 1.5
par DatabaseNetwork.user[191] lognormalS 1
scalar DatabaseNetwork.user[191] totalAccesses 466
scalar DatabaseNetwork.user[191] totalReads 135
scalar DatabaseNetwork.user[191] totalWrites 331
scalar DatabaseNetwork.user[191] averageWaitTime 0.10495528259856
scalar DatabaseNetwork.user[191] accessesPerSecond 0.0466
par DatabaseNetwork.user[192] typename "\"progetto.User\""
par DatabaseNetwork.user[192] userId 192
par DatabaseNetwork.user[192] lambda 0.05
par DatabaseNetwork.user[192] readProbability 0.3
par DatabaseNetwork.user[192] numTables 20
par DatabaseNetwork.user[192] tableDistribution "\"lognormal\""
par DatabaseNetwork.user[192] serviceTime 0.1s
attr unit s
par DatabaseNetwork.user[192] lognormalM 1.5
par DatabaseNetwork.user[192] lognormalS 1
scalar DatabaseNetwork.user[192] totalAccesses 540
scalar DatabaseNetwork.user[192] totalReads 170
scalar DatabaseNetwork.user[192] totalWrites 370
scalar DatabaseNetwork.user[192] averageWaitTime 0.10481177693785
scalar DatabaseNetwork.user[192] accessesPerSecond 0.054
par DatabaseNetwork.user[193] typename "\"progetto.User\""
par DatabaseNetwork.user[193] userId 193
par DatabaseNetwork.user[193] lambda 0.05
par DatabaseNetwork.user[193] readProbability 0.3
par DatabaseNetwork.user[193] numTables 20
par DatabaseNetwork.user[193] tableDistribution "\"lognormal\""
par DatabaseNetwork.user[193] serviceTime 0.1s
attr unit s
par DatabaseNetwork.user[193] lognormalM 1.5
par DatabaseNetwork.user[193] lognormalS 1
scalar DatabaseNetwork.user[193] totalAccesses 437
scalar DatabaseNetwork.user[193] totalReads 139
scalar DatabaseNetwork.user[193] totalWrites 298
scalar DatabaseNetwork.user[193] averageWaitTime 0.10554148260066
scalar DatabaseNetwork.user[193] accessesPerSecond 0.0437
par DatabaseNetwork.user[194] typename "\"progetto.User\""
par DatabaseNetwork.user[194] userId 194
par DatabaseNetwork.user[194] lambda 0.05
par DatabaseNetwork.user[194] readProbability 0.3
par DatabaseNetwork.user[194] numTables 20
par DatabaseNetwork.user[194] tableDistribution "\"lognormal\""
par DatabaseNetwork.user[194] serviceTime 0.1s
attr unit s
par DatabaseNetwork.user[194] lognormalM 1.5
par DatabaseNetwork.user[194] lognormalS 1
scalar DatabaseNetwork.user[194] totalAccesses 510
scalar DatabaseNetwork.user[194] totalReads 151
scalar DatabaseNetwork.user[194] totalWrites 359
scalar DatabaseNetwork.user[194] averageWaitTime 0.10454058505853
scalar DatabaseNetwork.user[194] accessesPerSecond 0.051
par DatabaseNetwork.user[195] typename "\"progetto.User\""
par DatabaseNetwork.user[195] userId 195
par DatabaseNetwork.user[195] lambda 0.05
par DatabaseNetwork.user[195] readProbability 0.3
par DatabaseNetwork.user[195] numTables 20
par DatabaseNetwork.user[195] tableDistribution "\"lognormal\""
par DatabaseNetwork.user[195] serviceTime 0.1s
attr unit s
par DatabaseNetwork.user[195] lognormalM 1.5
par DatabaseNetwork.user[195] lognormalS 1
scalar DatabaseNetwork.user[195] totalAccesses 502
scalar DatabaseNetwork.user[195] totalReads 170
scalar DatabaseNetwork.user[195] totalWrites 332
scalar DatabaseNetwork.user[195] averageWaitTime 0.10321280629448
scalar DatabaseNetwork.user[195] accessesPerSecond 0.0502
par DatabaseNetwork.user[196] typename "\"progetto.User\""
par DatabaseNetwork.user[196] userId 196
par DatabaseNetwork.user[196] lambda 0.05
par DatabaseNetwork.user[196] readProbability 0.3
par DatabaseNetwork.user[196] numTables 20
par DatabaseNetwork.user[196] tableDistribution "\"lognormal\""
par DatabaseNetwork.user[196] serviceTime 0.1s
attr unit s
par DatabaseNetwork.user[196] lognormalM 1.5
par DatabaseNetwork.user[196] lognormalS 1
scalar DatabaseNetwork.user[196] totalAccesses 464
scalar DatabaseNetwork.user[196] totalReads 130
scalar DatabaseNetwork.user[196] totalWrites 334
scalar DatabaseNetwork.user[196] averageWaitTime 0.10433919645916
scalar DatabaseNetwork.user[196] accessesPerSecond 0.0464
par DatabaseNetwork.user[197] typename "\"progetto.User\""
par DatabaseNetwork.user[197] userId 197
par DatabaseNetwork.user[197] lambda 0.05
par DatabaseNetwork.user[197] readProbability 0.3
par DatabaseNetwork.user[197] numTables 20
par DatabaseNetwork.user[197] tableDistribution "\"lognormal\""
par DatabaseNetwork.user[197] serviceTime 0.1s
attr unit s
par DatabaseNetwork.user[197] lognormalM 1.5
par DatabaseNetwork.user[197] lognormalS 1
scalar DatabaseNetwork.user[197] totalAccesses 469
scalar DatabaseNetwork.user[197] totalReads 136
scalar DatabaseNetwork.user[197] totalWrites 333
scalar DatabaseNetwork.user[197] averageWaitTime 0.10447771096212
scalar DatabaseNetwork.user[197] accessesPerSecond 0.0469
par DatabaseNetwork.user[198] typename "\"progetto.User\""
par DatabaseNetwork.user[198] userId 198
par DatabaseNetwork.user[198] lambda 0.05
par DatabaseNetwork.user[198] readProbability 0.3
par DatabaseNetwork.user[198] numTables 20
par DatabaseNetwork.user[198] tableDistribution "\"lognormal\""
par DatabaseNetwork.user[198] serviceTime 0.1s
attr unit s
par DatabaseNetwork.user[198] lognormalM 1.5
par DatabaseNetwork.user[198] lognormalS 1
scalar DatabaseNetwork.user[198] totalAccesses 498
scalar DatabaseNetwork.user[198] totalReads 154
scalar DatabaseNetwork.user[198] totalWrites 344
scalar DatabaseNetwork.user[198] averageWaitTime 0.1039323994865
scalar DatabaseNetwork.user[198] accessesPerSecond 0.0498
par DatabaseNetwork.user[199] typename "\"progetto.User\""
par DatabaseNetwork.user[199] userId 199
par DatabaseNetwork.user[199] lambda 0.05
par DatabaseNetwork.user[199] readProbability 0.3
par DatabaseNetwork.user[199] numTables 20
par DatabaseNetwork.user[199] tableDistribution "\"lognormal\""
par DatabaseNetwork.user[199] serviceTime 0.1s
attr unit s
par DatabaseNetwork.user[199] lognormalM 1.5
par DatabaseNetwork.user[199] lognormalS 1
scalar DatabaseNetwork.user[199] totalAccesses 506
scalar DatabaseNetwork.user[199] totalReads 159
scalar DatabaseNetwork.user[199] totalWrites 347
scalar DatabaseNetwork.user[199] averageWaitTime 0.10557850367654
scalar DatabaseNetwork.user[199] accessesPerSecond 0.0506
par DatabaseNetwork.table[0] typename "\"progetto.Table\""
par DatabaseNetwork.table[0] tableId 0
scalar DatabaseNetwork.table[0] table.totalServed 7484
scalar DatabaseNetwork.table[0] table.totalReads 2332
scalar DatabaseNetwork.table[0] table.totalWrites 5152
scalar DatabaseNetwork.table[0] table.throughput 0.7484
scalar DatabaseNetwork.table[0] table.maxQueueLength 2
scalar DatabaseNetwork.table[0] table.avgQueueLength 1.0029396044896
scalar DatabaseNetwork.table[0] table.avgWaitingTime 0.0037070979732592
scalar DatabaseNetwork.table[0] table.utilization 0.074489097853335
par DatabaseNetwork.table[1] typename "\"progetto.Table\""
par DatabaseNetwork.table[1] tableId 1
scalar DatabaseNetwork.table[1] table.totalServed 14970
scalar DatabaseNetwork.table[1] table.totalReads 4549
scalar DatabaseNetwork.table[1] table.totalWrites 10421
scalar DatabaseNetwork.table[1] table.throughput 1.497
scalar DatabaseNetwork.table[1] table.maxQueueLength 3
scalar DatabaseNetwork.table[1] table.avgQueueLength 1.0112216952775
scalar DatabaseNetwork.table[1] table.avgWaitingTime 0.0079977440873604
scalar DatabaseNetwork.table[1] table.utilization 0.14866082223181
par DatabaseNetwork.table[2] typename "\"progetto.Table\""
par DatabaseNetwork.table[2] tableId 2
scalar DatabaseNetwork.table[2] table.totalServed 14001
scalar DatabaseNetwork.table[2] table.totalReads 4258
scalar DatabaseNetwork.table[2] table.totalWrites 9743
scalar DatabaseNetwork.table[2] table.throughput 1.4001
scalar DatabaseNetwork.table[2] table.maxQueueLength 4
scalar DatabaseNetwork.table[2] table.avgQueueLength 1.0104278265838
scalar DatabaseNetwork.table[2] table.avgWaitingTime 0.0076702354060286
scalar DatabaseNetwork.table[2] table.utilization 0.1390275666631
par DatabaseNetwork.table[3] typename "\"progetto.Table\""
par DatabaseNetwork.table[3] tableId 3
scalar DatabaseNetwork.table[3] table.totalServed 11575
scalar DatabaseNetwork.table[3] table.totalReads 3474
scalar DatabaseNetwork.table[3] table.totalWrites 8101
scalar DatabaseNetwork.table[3] table.throughput 1.1575
scalar DatabaseNetwork.table[3] table.maxQueueLength 3
scalar DatabaseNetwork.table[3] table.avgQueueLength 1.0061339092873
scalar DatabaseNetwork.table[3] table.avgWaitingTime 0.0057703572399024
scalar DatabaseNetwork.table[3] table.utilization 0.11508070485429
par DatabaseNetwork.table[4] typename "\"progetto.Table\""
par DatabaseNetwork.table[4] tableId 4
scalar DatabaseNetwork.table[4] table.totalServed 9497
scalar DatabaseNetwork.table[4] table.totalReads 2811
scalar DatabaseNetwork.table[4] table.totalWrites 6686
scalar DatabaseNetwork.table[4] table.throughput 0.9497
scalar DatabaseNetwork.table[4] table.maxQueueLength 3
scalar DatabaseNetwork.table[4] table.avgQueueLength 1.0047383384227
scalar DatabaseNetwork.table[4] table.avgWaitingTime 0.0050179289860653
scalar DatabaseNetwork.table[4] table.utilization 0.094568865336543
par DatabaseNetwork.table[5] typename "\"progetto.Table\""
par DatabaseNetwork.table[5] tableId 5
scalar DatabaseNetwork.table[5] table.totalServed 7628
scalar DatabaseNetwork.table[5] table.totalReads 2375
scalar DatabaseNetwork.table[5] table.totalWrites 5253
scalar DatabaseNetwork.table[5] table.throughput 0.7628
scalar DatabaseNetwork.table[5] table.maxQueueLength 2
scalar DatabaseNetwork.table[5] table.avgQueueLength 1.0023597273204
scalar DatabaseNetwork.table[5] table.avgWaitingTime 0.0036575257198619
scalar DatabaseNetwork.table[5] table.utilization 0.076025253143541
par DatabaseNetwork.table[6] typename "\"progetto.Table\""
par DatabaseNetwork.table[6] tableId 6
scalar DatabaseNetwork.table[6] table.totalServed 6023
scalar DatabaseNetwork.table[6] table.totalReads 1881
scalar DatabaseNetwork.table[6] table.totalWrites 4142
scalar DatabaseNetwork.table[6] table.throughput 0.6023
scalar DatabaseNetwork.table[6] table.maxQueueLength 2
scalar DatabaseNetwork.table[6] table.avgQueueLength 1.00132824174
scalar DatabaseNetwork.table[6] table.avgWaitingTime 0.0030121930818265
scalar DatabaseNetwork.table[6] table.utilization 0.060075300703219
par DatabaseNetwork.table[7] typename "\"progetto.Table\""
par DatabaseNetwork.table[7] tableId 7
scalar DatabaseNetwork.table[7] table.totalServed 5025
scalar DatabaseNetwork.table[7] table.totalReads 1504
scalar DatabaseNetwork.table[7] table.totalWrites 3521
scalar DatabaseNetwork.table[7] table.throughput 0.5025
scalar DatabaseNetwork.table[7] table.maxQueueLength 2
scalar DatabaseNetwork.table[7] table.avgQueueLength 1.0021890547264
scalar DatabaseNetwork.table[7] table.avgWaitingTime 0.0025288861995621
scalar DatabaseNetwork.table[7] table.utilization 0.050138183427555
par DatabaseNetwork.table[8] typename "\"progetto.Table\""
par DatabaseNetwork.table[8] tableId 8
scalar DatabaseNetwork.table[8] table.totalServed 4122
scalar DatabaseNetwork.table[8] table.totalReads 1275
scalar DatabaseNetwork.table[8] table.totalWrites 2847
scalar DatabaseNetwork.table[8] table.throughput 0.4122
scalar DatabaseNetwork.table[8] table.maxQueueLength 2
scalar DatabaseNetwork.table[8] table.avgQueueLength 1.0007278020378
scalar DatabaseNetwork.table[8] table.avgWaitingTime 0.0019105423571779
scalar DatabaseNetwork.table[8] table.utilization 0.041103075622654
par DatabaseNetwork.table[9] typename "\"progetto.Table\""
par DatabaseNetwork.table[9] tableId 9
scalar DatabaseNetwork.table[9] table.totalServed 3445
scalar DatabaseNetwork.table[9] table.totalReads 1072
scalar DatabaseNetwork.table[9] table.totalWrites 2373
scalar DatabaseNetwork.table[9] table.throughput 0.3445
scalar DatabaseNetwork.table[9] table.maxQueueLength 2
scalar DatabaseNetwork.table[9] table.avgQueueLength 1.0005805515239
scalar DatabaseNetwork.table[9] table.avgWaitingTime 0.0014599976381972
scalar DatabaseNetwork.table[9] table.utilization 0.034435322734543
par DatabaseNetwork.table[10] typename "\"progetto.Table\""
par DatabaseNetwork.table[10] tableId 10
scalar DatabaseNetwork.table[10] table.totalServed 3025
scalar DatabaseNetwork.table[10] table.totalReads 889
scalar DatabaseNetwork.table[10] table.totalWrites 2136
scalar DatabaseNetwork.table[10] table.throughput 0.3025
scalar DatabaseNetwork.table[10] table.maxQueueLength 2
scalar DatabaseNetwork.table[10] table.avgQueueLength 1.0003305785124
scalar DatabaseNetwork.table[10] table.avgWaitingTime 0.0013973117053615
scalar DatabaseNetwork.table[10] table.utilization 0.030180930123636
par DatabaseNetwork.table[11] typename "\"progetto.Table\""
par DatabaseNetwork.table[11] tableId 11
scalar DatabaseNetwork.table[11] table.totalServed 2508
scalar DatabaseNetwork.table[11] table.totalReads 735
scalar DatabaseNetwork.table[11] table.totalWrites 1773
scalar DatabaseNetwork.table[11] table.throughput 0.2508
scalar DatabaseNetwork.table[11] table.maxQueueLength 2
scalar DatabaseNetwork.table[11] table.avgQueueLength 1.0003987240829
scalar DatabaseNetwork.table[11] table.avgWaitingTime 0.0010079971068414
scalar DatabaseNetwork.table[11] table.utilization 0.025023064765111
par DatabaseNetwork.table[12] typename "\"progetto.Table\""
par DatabaseNetwork.table[12] tableId 12
scalar DatabaseNetwork.table[12] table.totalServed 2086
scalar DatabaseNetwork.table[12] table.totalReads 622
scalar DatabaseNetwork.table[12] table.totalWrites 1464
scalar DatabaseNetwork.table[12] table.throughput 0.2086
scalar DatabaseNetwork.table[12] table.maxQueueLength 1
scalar DatabaseNetwork.table[12] table.avgQueueLength 1
scalar DatabaseNetwork.table[12] table.avgWaitingTime 0.00075991946283911
scalar DatabaseNetwork.table[12] table.utilization 0.020838928085403
par DatabaseNetwork.table[13] typename "\"progetto.Table\""
par DatabaseNetwork.table[13] tableId 13
scalar DatabaseNetwork.table[13] table.totalServed 1742
scalar DatabaseNetwork.table[13] table.totalReads 541
scalar DatabaseNetwork.table[13] table.totalWrites 1201
scalar DatabaseNetwork.table[13] table.throughput 0.1742
scalar DatabaseNetwork.table[13] table.maxQueueLength 2
scalar DatabaseNetwork.table[13] table.avgQueueLength 1.0005740528129
scalar DatabaseNetwork.table[13] table.avgWaitingTime 0.0009382687105406
scalar DatabaseNetwork.table[13] table.utilization 0.017398526722951
par DatabaseNetwork.table[14] typename "\"progetto.Table\""
par DatabaseNetwork.table[14] tableId 14
scalar DatabaseNetwork.table[14] table.totalServed 1589
scalar DatabaseNetwork.table[14] table.totalReads 495
scalar DatabaseNetwork.table[14] table.totalWrites 1094
scalar DatabaseNetwork.table[14] table.throughput 0.1589
scalar DatabaseNetwork.table[14] table.maxQueueLength 1
scalar DatabaseNetwork.table[14] table.avgQueueLength 1
scalar DatabaseNetwork.table[14] table.avgWaitingTime 0.00082893764196249
scalar DatabaseNetwork.table[14] table.utilization 0.015880477127906
par DatabaseNetwork.table[15] typename "\"progetto.Table\""
par DatabaseNetwork.table[15] tableId 15
scalar DatabaseNetwork.table[15] table.totalServed 1352
scalar DatabaseNetwork.table[15] table.totalReads 419
scalar DatabaseNetwork.table[15] table.totalWrites 933
scalar DatabaseNetwork.table[15] table.throughput 0.1352
scalar DatabaseNetwork.table[15] table.maxQueueLength 1
scalar DatabaseNetwork.table[15] table.avgQueueLength 1
scalar DatabaseNetwork.table[15] table.avgWaitingTime 0.00055673980017622
scalar DatabaseNetwork.table[15] table.utilization 0.013502604092879
par DatabaseNetwork.table[16] typename "\"progetto.Table\""
par DatabaseNetwork.table[16] tableId 16
scalar DatabaseNetwork.table[16] table.totalServed 1241
scalar DatabaseNetwork.table[16] table.totalReads 374
scalar DatabaseNetwork.table[16] table.totalWrites 867
scalar DatabaseNetwork.table[16] table.throughput 0.1241
scalar DatabaseNetwork.table[16] table.maxQueueLength 1
scalar DatabaseNetwork.table[16] table.avgQueueLength 1
scalar DatabaseNetwork.table[16] table.avgWaitingTime 0.00045169303319611
scalar DatabaseNetwork.table[16] table.utilization 0.012403765524849
par DatabaseNetwork.table[17] typename "\"progetto.Table\""
par DatabaseNetwork.table[17] tableId 17
scalar DatabaseNetwork.table[17] table.totalServed 1057
scalar DatabaseNetwork.table[17] table.totalReads 298
scalar DatabaseNetwork.table[17] table.totalWrites 759
scalar DatabaseNetwork.table[17] table.throughput 0.1057
scalar DatabaseNetwork.table[17] table.maxQueueLength 1
scalar DatabaseNetwork.table[17] table.avgQueueLength 1
scalar DatabaseNetwork.table[17] table.avgWaitingTime 0.00042559838104586
scalar DatabaseNetwork.table[17] table.utilization 0.01057
par DatabaseNetwork.table[18] typename "\"progetto.Table\""
par DatabaseNetwork.table[18] tableId 18
scalar DatabaseNetwork.table[18] table.totalServed 952
scalar DatabaseNetwork.table[18] table.totalReads 298
scalar DatabaseNetwork.table[18] table.totalWrites 654
scalar DatabaseNetwork.table[18] table.throughput 0.0952
scalar DatabaseNetwork.table[18] table.maxQueueLength 1
scalar DatabaseNetwork.table[18] table.avgQueueLength 1
scalar DatabaseNetwork.table[18] table.avgWaitingTime 0.00047568709833515
scalar DatabaseNetwork.table[18] table.utilization 0.0095044471670633
par DatabaseNetwork.table[19] typename "\"progetto.Table\""
par DatabaseNetwork.table[19] tableId 19
scalar DatabaseNetwork.table[19] table.totalServed 887
scalar DatabaseNetwork.table[19] table.totalReads 270
scalar DatabaseNetwork.table[19] table.totalWrites 617
scalar DatabaseNetwork.table[19] table.throughput 0.0887
scalar DatabaseNetwork.table[19] table.maxQueueLength 2
scalar DatabaseNetwork.table[19] table.avgQueueLength 1.0011273957159
scalar DatabaseNetwork.table[19] table.avgWaitingTime 0.0004959209121331
scalar DatabaseNetwork.table[19] table.utilization 0.0088690624055723
par DatabaseNetwork typename "\"progetto.DatabaseNetwork\""
par DatabaseNetwork numUsers 200
par DatabaseNetwork numTables 20

