version 3
run Lognormal-96-20260105-17:15:21-28123
attr configname Lognormal
attr datetime 20260105-17:15:21
attr datetimef 20260105-171521
attr experiment Lognormal
attr inifile omnetpp.ini
attr iterationvars "$N=150, $p=0.9"
attr iterationvarsd N=150/p=0.9
attr iterationvarsf N=150,p=0.9-
attr measurement "$N=150, $p=0.9"
attr network progetto.DatabaseNetwork
attr processid 28123
attr repetition 1
attr replication #1
attr resultdir results
attr runnumber 96
attr seedset 1
itervar N 150
itervar p 0.9
config description "Lognormal distribution (hotspots) - varia N e p"
config *.user[*].tableDistribution "\"lognormal\""
config *.user[*].lognormalM 1.5
config *.user[*].lognormalS 1.0
config *.numUsers 150
config *.user[*].readProbability 0.9
config network progetto.DatabaseNetwork
config sim-time-limit 10000s
config cpu-time-limit 3600s
config repeat 5
config seed-set 1
config output-vector-file "results/Lognormal-$N=150, $p=0.9-1.vec"
config output-scalar-file "results/Lognormal-$N=150, $p=0.9-1.sca"
config result-dir results
config **.vector-recording true
config **.scalar-recording true
config *.numTables 20
config *.user[*].lambda 0.05
config *.user[*].serviceTime 0.1s

par DatabaseNetwork.user[0] typename "\"progetto.User\""
par DatabaseNetwork.user[0] userId 0
par DatabaseNetwork.user[0] lambda 0.05
par DatabaseNetwork.user[0] readProbability 0.9
par DatabaseNetwork.user[0] numTables 20
par DatabaseNetwork.user[0] tableDistribution "\"lognormal\""
par DatabaseNetwork.user[0] serviceTime 0.1s
attr unit s
par DatabaseNetwork.user[0] lognormalM 1.5
par DatabaseNetwork.user[0] lognormalS 1
scalar DatabaseNetwork.user[0] totalAccesses 467
scalar DatabaseNetwork.user[0] totalReads 414
scalar DatabaseNetwork.user[0] totalWrites 53
scalar DatabaseNetwork.user[0] averageWaitTime 0.10073812290407
scalar DatabaseNetwork.user[0] accessesPerSecond 0.0467
par DatabaseNetwork.user[1] typename "\"progetto.User\""
par DatabaseNetwork.user[1] userId 1
par DatabaseNetwork.user[1] lambda 0.05
par DatabaseNetwork.user[1] readProbability 0.9
par DatabaseNetwork.user[1] numTables 20
par DatabaseNetwork.user[1] tableDistribution "\"lognormal\""
par DatabaseNetwork.user[1] serviceTime 0.1s
attr unit s
par DatabaseNetwork.user[1] lognormalM 1.5
par DatabaseNetwork.user[1] lognormalS 1
scalar DatabaseNetwork.user[1] totalAccesses 510
scalar DatabaseNetwork.user[1] totalReads 453
scalar DatabaseNetwork.user[1] totalWrites 57
scalar DatabaseNetwork.user[1] averageWaitTime 0.10071495021909
scalar DatabaseNetwork.user[1] accessesPerSecond 0.051
par DatabaseNetwork.user[2] typename "\"progetto.User\""
par DatabaseNetwork.user[2] userId 2
par DatabaseNetwork.user[2] lambda 0.05
par DatabaseNetwork.user[2] readProbability 0.9
par DatabaseNetwork.user[2] numTables 20
par DatabaseNetwork.user[2] tableDistribution "\"lognormal\""
par DatabaseNetwork.user[2] serviceTime 0.1s
attr unit s
par DatabaseNetwork.user[2] lognormalM 1.5
par DatabaseNetwork.user[2] lognormalS 1
scalar DatabaseNetwork.user[2] totalAccesses 462
scalar DatabaseNetwork.user[2] totalReads 418
scalar DatabaseNetwork.user[2] totalWrites 44
scalar DatabaseNetwork.user[2] averageWaitTime 0.100531611089
scalar DatabaseNetwork.user[2] accessesPerSecond 0.0462
par DatabaseNetwork.user[3] typename "\"progetto.User\""
par DatabaseNetwork.user[3] userId 3
par DatabaseNetwork.user[3] lambda 0.05
par DatabaseNetwork.user[3] readProbability 0.9
par DatabaseNetwork.user[3] numTables 20
par DatabaseNetwork.user[3] tableDistribution "\"lognormal\""
par DatabaseNetwork.user[3] serviceTime 0.1s
attr unit s
par DatabaseNetwork.user[3] lognormalM 1.5
par DatabaseNetwork.user[3] lognormalS 1
scalar DatabaseNetwork.user[3] totalAccesses 479
scalar DatabaseNetwork.user[3] totalReads 431
scalar DatabaseNetwork.user[3] totalWrites 48
scalar DatabaseNetwork.user[3] averageWaitTime 0.10063453339465
scalar DatabaseNetwork.user[3] accessesPerSecond 0.0479
par DatabaseNetwork.user[4] typename "\"progetto.User\""
par DatabaseNetwork.user[4] userId 4
par DatabaseNetwork.user[4] lambda 0.05
par DatabaseNetwork.user[4] readProbability 0.9
par DatabaseNetwork.user[4] numTables 20
par DatabaseNetwork.user[4] tableDistribution "\"lognormal\""
par DatabaseNetwork.user[4] serviceTime 0.1s
attr unit s
par DatabaseNetwork.user[4] lognormalM 1.5
par DatabaseNetwork.user[4] lognormalS 1
scalar DatabaseNetwork.user[4] totalAccesses 511
scalar DatabaseNetwork.user[4] totalReads 464
scalar DatabaseNetwork.user[4] totalWrites 47
scalar DatabaseNetwork.user[4] averageWaitTime 0.10031674703573
scalar DatabaseNetwork.user[4] accessesPerSecond 0.0511
par DatabaseNetwork.user[5] typename "\"progetto.User\""
par DatabaseNetwork.user[5] userId 5
par DatabaseNetwork.user[5] lambda 0.05
par DatabaseNetwork.user[5] readProbability 0.9
par DatabaseNetwork.user[5] numTables 20
par DatabaseNetwork.user[5] tableDistribution "\"lognormal\""
par DatabaseNetwork.user[5] serviceTime 0.1s
attr unit s
par DatabaseNetwork.user[5] lognormalM 1.5
par DatabaseNetwork.user[5] lognormalS 1
scalar DatabaseNetwork.user[5] totalAccesses 453
scalar DatabaseNetwork.user[5] totalReads 411
scalar DatabaseNetwork.user[5] totalWrites 42
scalar DatabaseNetwork.user[5] averageWaitTime 0.10067316807546
scalar DatabaseNetwork.user[5] accessesPerSecond 0.0453
par DatabaseNetwork.user[6] typename "\"progetto.User\""
par DatabaseNetwork.user[6] userId 6
par DatabaseNetwork.user[6] lambda 0.05
par DatabaseNetwork.user[6] readProbability 0.9
par DatabaseNetwork.user[6] numTables 20
par DatabaseNetwork.user[6] tableDistribution "\"lognormal\""
par DatabaseNetwork.user[6] serviceTime 0.1s
attr unit s
par DatabaseNetwork.user[6] lognormalM 1.5
par DatabaseNetwork.user[6] lognormalS 1
scalar DatabaseNetwork.user[6] totalAccesses 504
scalar DatabaseNetwork.user[6] totalReads 460
scalar DatabaseNetwork.user[6] totalWrites 44
scalar DatabaseNetwork.user[6] averageWaitTime 0.10025041211965
scalar DatabaseNetwork.user[6] accessesPerSecond 0.0504
par DatabaseNetwork.user[7] typename "\"progetto.User\""
par DatabaseNetwork.user[7] userId 7
par DatabaseNetwork.user[7] lambda 0.05
par DatabaseNetwork.user[7] readProbability 0.9
par DatabaseNetwork.user[7] numTables 20
par DatabaseNetwork.user[7] tableDistribution "\"lognormal\""
par DatabaseNetwork.user[7] serviceTime 0.1s
attr unit s
par DatabaseNetwork.user[7] lognormalM 1.5
par DatabaseNetwork.user[7] lognormalS 1
scalar DatabaseNetwork.user[7] totalAccesses 466
scalar DatabaseNetwork.user[7] totalReads 413
scalar DatabaseNetwork.user[7] totalWrites 53
scalar DatabaseNetwork.user[7] averageWaitTime 0.10079077918274
scalar DatabaseNetwork.user[7] accessesPerSecond 0.0466
par DatabaseNetwork.user[8] typename "\"progetto.User\""
par DatabaseNetwork.user[8] userId 8
par DatabaseNetwork.user[8] lambda 0.05
par DatabaseNetwork.user[8] readProbability 0.9
par DatabaseNetwork.user[8] numTables 20
par DatabaseNetwork.user[8] tableDistribution "\"lognormal\""
par DatabaseNetwork.user[8] serviceTime 0.1s
attr unit s
par DatabaseNetwork.user[8] lognormalM 1.5
par DatabaseNetwork.user[8] lognormalS 1
scalar DatabaseNetwork.user[8] totalAccesses 486
scalar DatabaseNetwork.user[8] totalReads 430
scalar DatabaseNetwork.user[8] totalWrites 56
scalar DatabaseNetwork.user[8] averageWaitTime 0.10092181965036
scalar DatabaseNetwork.user[8] accessesPerSecond 0.0486
par DatabaseNetwork.user[9] typename "\"progetto.User\""
par DatabaseNetwork.user[9] userId 9
par DatabaseNetwork.user[9] lambda 0.05
par DatabaseNetwork.user[9] readProbability 0.9
par DatabaseNetwork.user[9] numTables 20
par DatabaseNetwork.user[9] tableDistribution "\"lognormal\""
par DatabaseNetwork.user[9] serviceTime 0.1s
attr unit s
par DatabaseNetwork.user[9] lognormalM 1.5
par DatabaseNetwork.user[9] lognormalS 1
scalar DatabaseNetwork.user[9] totalAccesses 502
scalar DatabaseNetwork.user[9] totalReads 456
scalar DatabaseNetwork.user[9] totalWrites 46
scalar DatabaseNetwork.user[9] averageWaitTime 0.10075603912724
scalar DatabaseNetwork.user[9] accessesPerSecond 0.0502
par DatabaseNetwork.user[10] typename "\"progetto.User\""
par DatabaseNetwork.user[10] userId 10
par DatabaseNetwork.user[10] lambda 0.05
par DatabaseNetwork.user[10] readProbability 0.9
par DatabaseNetwork.user[10] numTables 20
par DatabaseNetwork.user[10] tableDistribution "\"lognormal\""
par DatabaseNetwork.user[10] serviceTime 0.1s
attr unit s
par DatabaseNetwork.user[10] lognormalM 1.5
par DatabaseNetwork.user[10] lognormalS 1
scalar DatabaseNetwork.user[10] totalAccesses 544
scalar DatabaseNetwork.user[10] totalReads 488
scalar DatabaseNetwork.user[10] totalWrites 56
scalar DatabaseNetwork.user[10] averageWaitTime 0.10060301238979
scalar DatabaseNetwork.user[10] accessesPerSecond 0.0544
par DatabaseNetwork.user[11] typename "\"progetto.User\""
par DatabaseNetwork.user[11] userId 11
par DatabaseNetwork.user[11] lambda 0.05
par DatabaseNetwork.user[11] readProbability 0.9
par DatabaseNetwork.user[11] numTables 20
par DatabaseNetwork.user[11] tableDistribution "\"lognormal\""
par DatabaseNetwork.user[11] serviceTime 0.1s
attr unit s
par DatabaseNetwork.user[11] lognormalM 1.5
par DatabaseNetwork.user[11] lognormalS 1
scalar DatabaseNetwork.user[11] totalAccesses 481
scalar DatabaseNetwork.user[11] totalReads 437
scalar DatabaseNetwork.user[11] totalWrites 44
scalar DatabaseNetwork.user[11] averageWaitTime 0.1005661815392
scalar DatabaseNetwork.user[11] accessesPerSecond 0.0481
par DatabaseNetwork.user[12] typename "\"progetto.User\""
par DatabaseNetwork.user[12] userId 12
par DatabaseNetwork.user[12] lambda 0.05
par DatabaseNetwork.user[12] readProbability 0.9
par DatabaseNetwork.user[12] numTables 20
par DatabaseNetwork.user[12] tableDistribution "\"lognormal\""
par DatabaseNetwork.user[12] serviceTime 0.1s
attr unit s
par DatabaseNetwork.user[12] lognormalM 1.5
par DatabaseNetwork.user[12] lognormalS 1
scalar DatabaseNetwork.user[12] totalAccesses 531
scalar DatabaseNetwork.user[12] totalReads 481
scalar DatabaseNetwork.user[12] totalWrites 50
scalar DatabaseNetwork.user[12] averageWaitTime 0.10071528683371
scalar DatabaseNetwork.user[12] accessesPerSecond 0.0531
par DatabaseNetwork.user[13] typename "\"progetto.User\""
par DatabaseNetwork.user[13] userId 13
par DatabaseNetwork.user[13] lambda 0.05
par DatabaseNetwork.user[13] readProbability 0.9
par DatabaseNetwork.user[13] numTables 20
par DatabaseNetwork.user[13] tableDistribution "\"lognormal\""
par DatabaseNetwork.user[13] serviceTime 0.1s
attr unit s
par DatabaseNetwork.user[13] lognormalM 1.5
par DatabaseNetwork.user[13] lognormalS 1
scalar DatabaseNetwork.user[13] totalAccesses 544
scalar DatabaseNetwork.user[13] totalReads 484
scalar DatabaseNetwork.user[13] totalWrites 60
scalar DatabaseNetwork.user[13] averageWaitTime 0.1005530880361
scalar DatabaseNetwork.user[13] accessesPerSecond 0.0544
par DatabaseNetwork.user[14] typename "\"progetto.User\""
par DatabaseNetwork.user[14] userId 14
par DatabaseNetwork.user[14] lambda 0.05
par DatabaseNetwork.user[14] readProbability 0.9
par DatabaseNetwork.user[14] numTables 20
par DatabaseNetwork.user[14] tableDistribution "\"lognormal\""
par DatabaseNetwork.user[14] serviceTime 0.1s
attr unit s
par DatabaseNetwork.user[14] lognormalM 1.5
par DatabaseNetwork.user[14] lognormalS 1
scalar DatabaseNetwork.user[14] totalAccesses 467
scalar DatabaseNetwork.user[14] totalReads 430
scalar DatabaseNetwork.user[14] totalWrites 37
scalar DatabaseNetwork.user[14] averageWaitTime 0.10073377628262
scalar DatabaseNetwork.user[14] accessesPerSecond 0.0467
par DatabaseNetwork.user[15] typename "\"progetto.User\""
par DatabaseNetwork.user[15] userId 15
par DatabaseNetwork.user[15] lambda 0.05
par DatabaseNetwork.user[15] readProbability 0.9
par DatabaseNetwork.user[15] numTables 20
par DatabaseNetwork.user[15] tableDistribution "\"lognormal\""
par DatabaseNetwork.user[15] serviceTime 0.1s
attr unit s
par DatabaseNetwork.user[15] lognormalM 1.5
par DatabaseNetwork.user[15] lognormalS 1
scalar DatabaseNetwork.user[15] totalAccesses 522
scalar DatabaseNetwork.user[15] totalReads 463
scalar DatabaseNetwork.user[15] totalWrites 59
scalar DatabaseNetwork.user[15] averageWaitTime 0.10077629214234
scalar DatabaseNetwork.user[15] accessesPerSecond 0.0522
par DatabaseNetwork.user[16] typename "\"progetto.User\""
par DatabaseNetwork.user[16] userId 16
par DatabaseNetwork.user[16] lambda 0.05
par DatabaseNetwork.user[16] readProbability 0.9
par DatabaseNetwork.user[16] numTables 20
par DatabaseNetwork.user[16] tableDistribution "\"lognormal\""
par DatabaseNetwork.user[16] serviceTime 0.1s
attr unit s
par DatabaseNetwork.user[16] lognormalM 1.5
par DatabaseNetwork.user[16] lognormalS 1
scalar DatabaseNetwork.user[16] totalAccesses 537
scalar DatabaseNetwork.user[16] totalReads 479
scalar DatabaseNetwork.user[16] totalWrites 58
scalar DatabaseNetwork.user[16] averageWaitTime 0.10032149878901
scalar DatabaseNetwork.user[16] accessesPerSecond 0.0537
par DatabaseNetwork.user[17] typename "\"progetto.User\""
par DatabaseNetwork.user[17] userId 17
par DatabaseNetwork.user[17] lambda 0.05
par DatabaseNetwork.user[17] readProbability 0.9
par DatabaseNetwork.user[17] numTables 20
par DatabaseNetwork.user[17] tableDistribution "\"lognormal\""
par DatabaseNetwork.user[17] serviceTime 0.1s
attr unit s
par DatabaseNetwork.user[17] lognormalM 1.5
par DatabaseNetwork.user[17] lognormalS 1
scalar DatabaseNetwork.user[17] totalAccesses 485
scalar DatabaseNetwork.user[17] totalReads 430
scalar DatabaseNetwork.user[17] totalWrites 55
scalar DatabaseNetwork.user[17] averageWaitTime 0.10036344488271
scalar DatabaseNetwork.user[17] accessesPerSecond 0.0485
par DatabaseNetwork.user[18] typename "\"progetto.User\""
par DatabaseNetwork.user[18] userId 18
par DatabaseNetwork.user[18] lambda 0.05
par DatabaseNetwork.user[18] readProbability 0.9
par DatabaseNetwork.user[18] numTables 20
par DatabaseNetwork.user[18] tableDistribution "\"lognormal\""
par DatabaseNetwork.user[18] serviceTime 0.1s
attr unit s
par DatabaseNetwork.user[18] lognormalM 1.5
par DatabaseNetwork.user[18] lognormalS 1
scalar DatabaseNetwork.user[18] totalAccesses 495
scalar DatabaseNetwork.user[18] totalReads 443
scalar DatabaseNetwork.user[18] totalWrites 52
scalar DatabaseNetwork.user[18] averageWaitTime 0.10073313157938
scalar DatabaseNetwork.user[18] accessesPerSecond 0.0495
par DatabaseNetwork.user[19] typename "\"progetto.User\""
par DatabaseNetwork.user[19] userId 19
par DatabaseNetwork.user[19] lambda 0.05
par DatabaseNetwork.user[19] readProbability 0.9
par DatabaseNetwork.user[19] numTables 20
par DatabaseNetwork.user[19] tableDistribution "\"lognormal\""
par DatabaseNetwork.user[19] serviceTime 0.1s
attr unit s
par DatabaseNetwork.user[19] lognormalM 1.5
par DatabaseNetwork.user[19] lognormalS 1
scalar DatabaseNetwork.user[19] totalAccesses 523
scalar DatabaseNetwork.user[19] totalReads 478
scalar DatabaseNetwork.user[19] totalWrites 45
scalar DatabaseNetwork.user[19] averageWaitTime 0.10128889410845
scalar DatabaseNetwork.user[19] accessesPerSecond 0.0523
par DatabaseNetwork.user[20] typename "\"progetto.User\""
par DatabaseNetwork.user[20] userId 20
par DatabaseNetwork.user[20] lambda 0.05
par DatabaseNetwork.user[20] readProbability 0.9
par DatabaseNetwork.user[20] numTables 20
par DatabaseNetwork.user[20] tableDistribution "\"lognormal\""
par DatabaseNetwork.user[20] serviceTime 0.1s
attr unit s
par DatabaseNetwork.user[20] lognormalM 1.5
par DatabaseNetwork.user[20] lognormalS 1
scalar DatabaseNetwork.user[20] totalAccesses 503
scalar DatabaseNetwork.user[20] totalReads 444
scalar DatabaseNetwork.user[20] totalWrites 59
scalar DatabaseNetwork.user[20] averageWaitTime 0.10047069375429
scalar DatabaseNetwork.user[20] accessesPerSecond 0.0503
par DatabaseNetwork.user[21] typename "\"progetto.User\""
par DatabaseNetwork.user[21] userId 21
par DatabaseNetwork.user[21] lambda 0.05
par DatabaseNetwork.user[21] readProbability 0.9
par DatabaseNetwork.user[21] numTables 20
par DatabaseNetwork.user[21] tableDistribution "\"lognormal\""
par DatabaseNetwork.user[21] serviceTime 0.1s
attr unit s
par DatabaseNetwork.user[21] lognormalM 1.5
par DatabaseNetwork.user[21] lognormalS 1
scalar DatabaseNetwork.user[21] totalAccesses 434
scalar DatabaseNetwork.user[21] totalReads 396
scalar DatabaseNetwork.user[21] totalWrites 38
scalar DatabaseNetwork.user[21] averageWaitTime 0.10107068297043
scalar DatabaseNetwork.user[21] accessesPerSecond 0.0434
par DatabaseNetwork.user[22] typename "\"progetto.User\""
par DatabaseNetwork.user[22] userId 22
par DatabaseNetwork.user[22] lambda 0.05
par DatabaseNetwork.user[22] readProbability 0.9
par DatabaseNetwork.user[22] numTables 20
par DatabaseNetwork.user[22] tableDistribution "\"lognormal\""
par DatabaseNetwork.user[22] serviceTime 0.1s
attr unit s
par DatabaseNetwork.user[22] lognormalM 1.5
par DatabaseNetwork.user[22] lognormalS 1
scalar DatabaseNetwork.user[22] totalAccesses 489
scalar DatabaseNetwork.user[22] totalReads 439
scalar DatabaseNetwork.user[22] totalWrites 50
scalar DatabaseNetwork.user[22] averageWaitTime 0.10057764210022
scalar DatabaseNetwork.user[22] accessesPerSecond 0.0489
par DatabaseNetwork.user[23] typename "\"progetto.User\""
par DatabaseNetwork.user[23] userId 23
par DatabaseNetwork.user[23] lambda 0.05
par DatabaseNetwork.user[23] readProbability 0.9
par DatabaseNetwork.user[23] numTables 20
par DatabaseNetwork.user[23] tableDistribution "\"lognormal\""
par DatabaseNetwork.user[23] serviceTime 0.1s
attr unit s
par DatabaseNetwork.user[23] lognormalM 1.5
par DatabaseNetwork.user[23] lognormalS 1
scalar DatabaseNetwork.user[23] totalAccesses 504
scalar DatabaseNetwork.user[23] totalReads 457
scalar DatabaseNetwork.user[23] totalWrites 47
scalar DatabaseNetwork.user[23] averageWaitTime 0.1006789438317
scalar DatabaseNetwork.user[23] accessesPerSecond 0.0504
par DatabaseNetwork.user[24] typename "\"progetto.User\""
par DatabaseNetwork.user[24] userId 24
par DatabaseNetwork.user[24] lambda 0.05
par DatabaseNetwork.user[24] readProbability 0.9
par DatabaseNetwork.user[24] numTables 20
par DatabaseNetwork.user[24] tableDistribution "\"lognormal\""
par DatabaseNetwork.user[24] serviceTime 0.1s
attr unit s
par DatabaseNetwork.user[24] lognormalM 1.5
par DatabaseNetwork.user[24] lognormalS 1
scalar DatabaseNetwork.user[24] totalAccesses 516
scalar DatabaseNetwork.user[24] totalReads 474
scalar DatabaseNetwork.user[24] totalWrites 42
scalar DatabaseNetwork.user[24] averageWaitTime 0.10052235008505
scalar DatabaseNetwork.user[24] accessesPerSecond 0.0516
par DatabaseNetwork.user[25] typename "\"progetto.User\""
par DatabaseNetwork.user[25] userId 25
par DatabaseNetwork.user[25] lambda 0.05
par DatabaseNetwork.user[25] readProbability 0.9
par DatabaseNetwork.user[25] numTables 20
par DatabaseNetwork.user[25] tableDistribution "\"lognormal\""
par DatabaseNetwork.user[25] serviceTime 0.1s
attr unit s
par DatabaseNetwork.user[25] lognormalM 1.5
par DatabaseNetwork.user[25] lognormalS 1
scalar DatabaseNetwork.user[25] totalAccesses 458
scalar DatabaseNetwork.user[25] totalReads 410
scalar DatabaseNetwork.user[25] totalWrites 48
scalar DatabaseNetwork.user[25] averageWaitTime 0.1005006898333
scalar DatabaseNetwork.user[25] accessesPerSecond 0.0458
par DatabaseNetwork.user[26] typename "\"progetto.User\""
par DatabaseNetwork.user[26] userId 26
par DatabaseNetwork.user[26] lambda 0.05
par DatabaseNetwork.user[26] readProbability 0.9
par DatabaseNetwork.user[26] numTables 20
par DatabaseNetwork.user[26] tableDistribution "\"lognormal\""
par DatabaseNetwork.user[26] serviceTime 0.1s
attr unit s
par DatabaseNetwork.user[26] lognormalM 1.5
par DatabaseNetwork.user[26] lognormalS 1
scalar DatabaseNetwork.user[26] totalAccesses 480
scalar DatabaseNetwork.user[26] totalReads 424
scalar DatabaseNetwork.user[26] totalWrites 56
scalar DatabaseNetwork.user[26] averageWaitTime 0.1004314199474
scalar DatabaseNetwork.user[26] accessesPerSecond 0.048
par DatabaseNetwork.user[27] typename "\"progetto.User\""
par DatabaseNetwork.user[27] userId 27
par DatabaseNetwork.user[27] lambda 0.05
par DatabaseNetwork.user[27] readProbability 0.9
par DatabaseNetwork.user[27] numTables 20
par DatabaseNetwork.user[27] tableDistribution "\"lognormal\""
par DatabaseNetwork.user[27] serviceTime 0.1s
attr unit s
par DatabaseNetwork.user[27] lognormalM 1.5
par DatabaseNetwork.user[27] lognormalS 1
scalar DatabaseNetwork.user[27] totalAccesses 543
scalar DatabaseNetwork.user[27] totalReads 490
scalar DatabaseNetwork.user[27] totalWrites 53
scalar DatabaseNetwork.user[27] averageWaitTime 0.10124847740159
scalar DatabaseNetwork.user[27] accessesPerSecond 0.0543
par DatabaseNetwork.user[28] typename "\"progetto.User\""
par DatabaseNetwork.user[28] userId 28
par DatabaseNetwork.user[28] lambda 0.05
par DatabaseNetwork.user[28] readProbability 0.9
par DatabaseNetwork.user[28] numTables 20
par DatabaseNetwork.user[28] tableDistribution "\"lognormal\""
par DatabaseNetwork.user[28] serviceTime 0.1s
attr unit s
par DatabaseNetwork.user[28] lognormalM 1.5
par DatabaseNetwork.user[28] lognormalS 1
scalar DatabaseNetwork.user[28] totalAccesses 495
scalar DatabaseNetwork.user[28] totalReads 450
scalar DatabaseNetwork.user[28] totalWrites 45
scalar DatabaseNetwork.user[28] averageWaitTime 0.1007675262815
scalar DatabaseNetwork.user[28] accessesPerSecond 0.0495
par DatabaseNetwork.user[29] typename "\"progetto.User\""
par DatabaseNetwork.user[29] userId 29
par DatabaseNetwork.user[29] lambda 0.05
par DatabaseNetwork.user[29] readProbability 0.9
par DatabaseNetwork.user[29] numTables 20
par DatabaseNetwork.user[29] tableDistribution "\"lognormal\""
par DatabaseNetwork.user[29] serviceTime 0.1s
attr unit s
par DatabaseNetwork.user[29] lognormalM 1.5
par DatabaseNetwork.user[29] lognormalS 1
scalar DatabaseNetwork.user[29] totalAccesses 518
scalar DatabaseNetwork.user[29] totalReads 466
scalar DatabaseNetwork.user[29] totalWrites 52
scalar DatabaseNetwork.user[29] averageWaitTime 0.10109715915203
scalar DatabaseNetwork.user[29] accessesPerSecond 0.0518
par DatabaseNetwork.user[30] typename "\"progetto.User\""
par DatabaseNetwork.user[30] userId 30
par DatabaseNetwork.user[30] lambda 0.05
par DatabaseNetwork.user[30] readProbability 0.9
par DatabaseNetwork.user[30] numTables 20
par DatabaseNetwork.user[30] tableDistribution "\"lognormal\""
par DatabaseNetwork.user[30] serviceTime 0.1s
attr unit s
par DatabaseNetwork.user[30] lognormalM 1.5
par DatabaseNetwork.user[30] lognormalS 1
scalar DatabaseNetwork.user[30] totalAccesses 493
scalar DatabaseNetwork.user[30] totalReads 448
scalar DatabaseNetwork.user[30] totalWrites 45
scalar DatabaseNetwork.user[30] averageWaitTime 0.10031463187109
scalar DatabaseNetwork.user[30] accessesPerSecond 0.0493
par DatabaseNetwork.user[31] typename "\"progetto.User\""
par DatabaseNetwork.user[31] userId 31
par DatabaseNetwork.user[31] lambda 0.05
par DatabaseNetwork.user[31] readProbability 0.9
par DatabaseNetwork.user[31] numTables 20
par DatabaseNetwork.user[31] tableDistribution "\"lognormal\""
par DatabaseNetwork.user[31] serviceTime 0.1s
attr unit s
par DatabaseNetwork.user[31] lognormalM 1.5
par DatabaseNetwork.user[31] lognormalS 1
scalar DatabaseNetwork.user[31] totalAccesses 502
scalar DatabaseNetwork.user[31] totalReads 464
scalar DatabaseNetwork.user[31] totalWrites 38
scalar DatabaseNetwork.user[31] averageWaitTime 0.10045135259015
scalar DatabaseNetwork.user[31] accessesPerSecond 0.0502
par DatabaseNetwork.user[32] typename "\"progetto.User\""
par DatabaseNetwork.user[32] userId 32
par DatabaseNetwork.user[32] lambda 0.05
par DatabaseNetwork.user[32] readProbability 0.9
par DatabaseNetwork.user[32] numTables 20
par DatabaseNetwork.user[32] tableDistribution "\"lognormal\""
par DatabaseNetwork.user[32] serviceTime 0.1s
attr unit s
par DatabaseNetwork.user[32] lognormalM 1.5
par DatabaseNetwork.user[32] lognormalS 1
scalar DatabaseNetwork.user[32] totalAccesses 532
scalar DatabaseNetwork.user[32] totalReads 479
scalar DatabaseNetwork.user[32] totalWrites 53
scalar DatabaseNetwork.user[32] averageWaitTime 0.10105535752623
scalar DatabaseNetwork.user[32] accessesPerSecond 0.0532
par DatabaseNetwork.user[33] typename "\"progetto.User\""
par DatabaseNetwork.user[33] userId 33
par DatabaseNetwork.user[33] lambda 0.05
par DatabaseNetwork.user[33] readProbability 0.9
par DatabaseNetwork.user[33] numTables 20
par DatabaseNetwork.user[33] tableDistribution "\"lognormal\""
par DatabaseNetwork.user[33] serviceTime 0.1s
attr unit s
par DatabaseNetwork.user[33] lognormalM 1.5
par DatabaseNetwork.user[33] lognormalS 1
scalar DatabaseNetwork.user[33] totalAccesses 524
scalar DatabaseNetwork.user[33] totalReads 475
scalar DatabaseNetwork.user[33] totalWrites 49
scalar DatabaseNetwork.user[33] averageWaitTime 0.10074097047018
scalar DatabaseNetwork.user[33] accessesPerSecond 0.0524
par DatabaseNetwork.user[34] typename "\"progetto.User\""
par DatabaseNetwork.user[34] userId 34
par DatabaseNetwork.user[34] lambda 0.05
par DatabaseNetwork.user[34] readProbability 0.9
par DatabaseNetwork.user[34] numTables 20
par DatabaseNetwork.user[34] tableDistribution "\"lognormal\""
par DatabaseNetwork.user[34] serviceTime 0.1s
attr unit s
par DatabaseNetwork.user[34] lognormalM 1.5
par DatabaseNetwork.user[34] lognormalS 1
scalar DatabaseNetwork.user[34] totalAccesses 468
scalar DatabaseNetwork.user[34] totalReads 420
scalar DatabaseNetwork.user[34] totalWrites 48
scalar DatabaseNetwork.user[34] averageWaitTime 0.10100651697122
scalar DatabaseNetwork.user[34] accessesPerSecond 0.0468
par DatabaseNetwork.user[35] typename "\"progetto.User\""
par DatabaseNetwork.user[35] userId 35
par DatabaseNetwork.user[35] lambda 0.05
par DatabaseNetwork.user[35] readProbability 0.9
par DatabaseNetwork.user[35] numTables 20
par DatabaseNetwork.user[35] tableDistribution "\"lognormal\""
par DatabaseNetwork.user[35] serviceTime 0.1s
attr unit s
par DatabaseNetwork.user[35] lognormalM 1.5
par DatabaseNetwork.user[35] lognormalS 1
scalar DatabaseNetwork.user[35] totalAccesses 536
scalar DatabaseNetwork.user[35] totalReads 488
scalar DatabaseNetwork.user[35] totalWrites 48
scalar DatabaseNetwork.user[35] averageWaitTime 0.10060841825903
scalar DatabaseNetwork.user[35] accessesPerSecond 0.0536
par DatabaseNetwork.user[36] typename "\"progetto.User\""
par DatabaseNetwork.user[36] userId 36
par DatabaseNetwork.user[36] lambda 0.05
par DatabaseNetwork.user[36] readProbability 0.9
par DatabaseNetwork.user[36] numTables 20
par DatabaseNetwork.user[36] tableDistribution "\"lognormal\""
par DatabaseNetwork.user[36] serviceTime 0.1s
attr unit s
par DatabaseNetwork.user[36] lognormalM 1.5
par DatabaseNetwork.user[36] lognormalS 1
scalar DatabaseNetwork.user[36] totalAccesses 469
scalar DatabaseNetwork.user[36] totalReads 423
scalar DatabaseNetwork.user[36] totalWrites 46
scalar DatabaseNetwork.user[36] averageWaitTime 0.10040320627686
scalar DatabaseNetwork.user[36] accessesPerSecond 0.0469
par DatabaseNetwork.user[37] typename "\"progetto.User\""
par DatabaseNetwork.user[37] userId 37
par DatabaseNetwork.user[37] lambda 0.05
par DatabaseNetwork.user[37] readProbability 0.9
par DatabaseNetwork.user[37] numTables 20
par DatabaseNetwork.user[37] tableDistribution "\"lognormal\""
par DatabaseNetwork.user[37] serviceTime 0.1s
attr unit s
par DatabaseNetwork.user[37] lognormalM 1.5
par DatabaseNetwork.user[37] lognormalS 1
scalar DatabaseNetwork.user[37] totalAccesses 492
scalar DatabaseNetwork.user[37] totalReads 443
scalar DatabaseNetwork.user[37] totalWrites 49
scalar DatabaseNetwork.user[37] averageWaitTime 0.10075446430282
scalar DatabaseNetwork.user[37] accessesPerSecond 0.0492
par DatabaseNetwork.user[38] typename "\"progetto.User\""
par DatabaseNetwork.user[38] userId 38
par DatabaseNetwork.user[38] lambda 0.05
par DatabaseNetwork.user[38] readProbability 0.9
par DatabaseNetwork.user[38] numTables 20
par DatabaseNetwork.user[38] tableDistribution "\"lognormal\""
par DatabaseNetwork.user[38] serviceTime 0.1s
attr unit s
par DatabaseNetwork.user[38] lognormalM 1.5
par DatabaseNetwork.user[38] lognormalS 1
scalar DatabaseNetwork.user[38] totalAccesses 476
scalar DatabaseNetwork.user[38] totalReads 421
scalar DatabaseNetwork.user[38] totalWrites 55
scalar DatabaseNetwork.user[38] averageWaitTime 0.10102159121843
scalar DatabaseNetwork.user[38] accessesPerSecond 0.0476
par DatabaseNetwork.user[39] typename "\"progetto.User\""
par DatabaseNetwork.user[39] userId 39
par DatabaseNetwork.user[39] lambda 0.05
par DatabaseNetwork.user[39] readProbability 0.9
par DatabaseNetwork.user[39] numTables 20
par DatabaseNetwork.user[39] tableDistribution "\"lognormal\""
par DatabaseNetwork.user[39] serviceTime 0.1s
attr unit s
par DatabaseNetwork.user[39] lognormalM 1.5
par DatabaseNetwork.user[39] lognormalS 1
scalar DatabaseNetwork.user[39] totalAccesses 520
scalar DatabaseNetwork.user[39] totalReads 469
scalar DatabaseNetwork.user[39] totalWrites 51
scalar DatabaseNetwork.user[39] averageWaitTime 0.10049993385286
scalar DatabaseNetwork.user[39] accessesPerSecond 0.052
par DatabaseNetwork.user[40] typename "\"progetto.User\""
par DatabaseNetwork.user[40] userId 40
par DatabaseNetwork.user[40] lambda 0.05
par DatabaseNetwork.user[40] readProbability 0.9
par DatabaseNetwork.user[40] numTables 20
par DatabaseNetwork.user[40] tableDistribution "\"lognormal\""
par DatabaseNetwork.user[40] serviceTime 0.1s
attr unit s
par DatabaseNetwork.user[40] lognormalM 1.5
par DatabaseNetwork.user[40] lognormalS 1
scalar DatabaseNetwork.user[40] totalAccesses 540
scalar DatabaseNetwork.user[40] totalReads 486
scalar DatabaseNetwork.user[40] totalWrites 54
scalar DatabaseNetwork.user[40] averageWaitTime 0.10026652280734
scalar DatabaseNetwork.user[40] accessesPerSecond 0.054
par DatabaseNetwork.user[41] typename "\"progetto.User\""
par DatabaseNetwork.user[41] userId 41
par DatabaseNetwork.user[41] lambda 0.05
par DatabaseNetwork.user[41] readProbability 0.9
par DatabaseNetwork.user[41] numTables 20
par DatabaseNetwork.user[41] tableDistribution "\"lognormal\""
par DatabaseNetwork.user[41] serviceTime 0.1s
attr unit s
par DatabaseNetwork.user[41] lognormalM 1.5
par DatabaseNetwork.user[41] lognormalS 1
scalar DatabaseNetwork.user[41] totalAccesses 456
scalar DatabaseNetwork.user[41] totalReads 414
scalar DatabaseNetwork.user[41] totalWrites 42
scalar DatabaseNetwork.user[41] averageWaitTime 0.10025662259057
scalar DatabaseNetwork.user[41] accessesPerSecond 0.0456
par DatabaseNetwork.user[42] typename "\"progetto.User\""
par DatabaseNetwork.user[42] userId 42
par DatabaseNetwork.user[42] lambda 0.05
par DatabaseNetwork.user[42] readProbability 0.9
par DatabaseNetwork.user[42] numTables 20
par DatabaseNetwork.user[42] tableDistribution "\"lognormal\""
par DatabaseNetwork.user[42] serviceTime 0.1s
attr unit s
par DatabaseNetwork.user[42] lognormalM 1.5
par DatabaseNetwork.user[42] lognormalS 1
scalar DatabaseNetwork.user[42] totalAccesses 447
scalar DatabaseNetwork.user[42] totalReads 395
scalar DatabaseNetwork.user[42] totalWrites 52
scalar DatabaseNetwork.user[42] averageWaitTime 0.10130126922924
scalar DatabaseNetwork.user[42] accessesPerSecond 0.0447
par DatabaseNetwork.user[43] typename "\"progetto.User\""
par DatabaseNetwork.user[43] userId 43
par DatabaseNetwork.user[43] lambda 0.05
par DatabaseNetwork.user[43] readProbability 0.9
par DatabaseNetwork.user[43] numTables 20
par DatabaseNetwork.user[43] tableDistribution "\"lognormal\""
par DatabaseNetwork.user[43] serviceTime 0.1s
attr unit s
par DatabaseNetwork.user[43] lognormalM 1.5
par DatabaseNetwork.user[43] lognormalS 1
scalar DatabaseNetwork.user[43] totalAccesses 499
scalar DatabaseNetwork.user[43] totalReads 454
scalar DatabaseNetwork.user[43] totalWrites 45
scalar DatabaseNetwork.user[43] averageWaitTime 0.10062393680894
scalar DatabaseNetwork.user[43] accessesPerSecond 0.0499
par DatabaseNetwork.user[44] typename "\"progetto.User\""
par DatabaseNetwork.user[44] userId 44
par DatabaseNetwork.user[44] lambda 0.05
par DatabaseNetwork.user[44] readProbability 0.9
par DatabaseNetwork.user[44] numTables 20
par DatabaseNetwork.user[44] tableDistribution "\"lognormal\""
par DatabaseNetwork.user[44] serviceTime 0.1s
attr unit s
par DatabaseNetwork.user[44] lognormalM 1.5
par DatabaseNetwork.user[44] lognormalS 1
scalar DatabaseNetwork.user[44] totalAccesses 505
scalar DatabaseNetwork.user[44] totalReads 451
scalar DatabaseNetwork.user[44] totalWrites 54
scalar DatabaseNetwork.user[44] averageWaitTime 0.10050539905709
scalar DatabaseNetwork.user[44] accessesPerSecond 0.0505
par DatabaseNetwork.user[45] typename "\"progetto.User\""
par DatabaseNetwork.user[45] userId 45
par DatabaseNetwork.user[45] lambda 0.05
par DatabaseNetwork.user[45] readProbability 0.9
par DatabaseNetwork.user[45] numTables 20
par DatabaseNetwork.user[45] tableDistribution "\"lognormal\""
par DatabaseNetwork.user[45] serviceTime 0.1s
attr unit s
par DatabaseNetwork.user[45] lognormalM 1.5
par DatabaseNetwork.user[45] lognormalS 1
scalar DatabaseNetwork.user[45] totalAccesses 520
scalar DatabaseNetwork.user[45] totalReads 464
scalar DatabaseNetwork.user[45] totalWrites 56
scalar DatabaseNetwork.user[45] averageWaitTime 0.10055284300427
scalar DatabaseNetwork.user[45] accessesPerSecond 0.052
par DatabaseNetwork.user[46] typename "\"progetto.User\""
par DatabaseNetwork.user[46] userId 46
par DatabaseNetwork.user[46] lambda 0.05
par DatabaseNetwork.user[46] readProbability 0.9
par DatabaseNetwork.user[46] numTables 20
par DatabaseNetwork.user[46] tableDistribution "\"lognormal\""
par DatabaseNetwork.user[46] serviceTime 0.1s
attr unit s
par DatabaseNetwork.user[46] lognormalM 1.5
par DatabaseNetwork.user[46] lognormalS 1
scalar DatabaseNetwork.user[46] totalAccesses 513
scalar DatabaseNetwork.user[46] totalReads 462
scalar DatabaseNetwork.user[46] totalWrites 51
scalar DatabaseNetwork.user[46] averageWaitTime 0.10080785250605
scalar DatabaseNetwork.user[46] accessesPerSecond 0.0513
par DatabaseNetwork.user[47] typename "\"progetto.User\""
par DatabaseNetwork.user[47] userId 47
par DatabaseNetwork.user[47] lambda 0.05
par DatabaseNetwork.user[47] readProbability 0.9
par DatabaseNetwork.user[47] numTables 20
par DatabaseNetwork.user[47] tableDistribution "\"lognormal\""
par DatabaseNetwork.user[47] serviceTime 0.1s
attr unit s
par DatabaseNetwork.user[47] lognormalM 1.5
par DatabaseNetwork.user[47] lognormalS 1
scalar DatabaseNetwork.user[47] totalAccesses 496
scalar DatabaseNetwork.user[47] totalReads 455
scalar DatabaseNetwork.user[47] totalWrites 41
scalar DatabaseNetwork.user[47] averageWaitTime 0.10041484809509
scalar DatabaseNetwork.user[47] accessesPerSecond 0.0496
par DatabaseNetwork.user[48] typename "\"progetto.User\""
par DatabaseNetwork.user[48] userId 48
par DatabaseNetwork.user[48] lambda 0.05
par DatabaseNetwork.user[48] readProbability 0.9
par DatabaseNetwork.user[48] numTables 20
par DatabaseNetwork.user[48] tableDistribution "\"lognormal\""
par DatabaseNetwork.user[48] serviceTime 0.1s
attr unit s
par DatabaseNetwork.user[48] lognormalM 1.5
par DatabaseNetwork.user[48] lognormalS 1
scalar DatabaseNetwork.user[48] totalAccesses 467
scalar DatabaseNetwork.user[48] totalReads 424
scalar DatabaseNetwork.user[48] totalWrites 43
scalar DatabaseNetwork.user[48] averageWaitTime 0.10044046331972
scalar DatabaseNetwork.user[48] accessesPerSecond 0.0467
par DatabaseNetwork.user[49] typename "\"progetto.User\""
par DatabaseNetwork.user[49] userId 49
par DatabaseNetwork.user[49] lambda 0.05
par DatabaseNetwork.user[49] readProbability 0.9
par DatabaseNetwork.user[49] numTables 20
par DatabaseNetwork.user[49] tableDistribution "\"lognormal\""
par DatabaseNetwork.user[49] serviceTime 0.1s
attr unit s
par DatabaseNetwork.user[49] lognormalM 1.5
par DatabaseNetwork.user[49] lognormalS 1
scalar DatabaseNetwork.user[49] totalAccesses 481
scalar DatabaseNetwork.user[49] totalReads 424
scalar DatabaseNetwork.user[49] totalWrites 57
scalar DatabaseNetwork.user[49] averageWaitTime 0.10137681801089
scalar DatabaseNetwork.user[49] accessesPerSecond 0.0481
par DatabaseNetwork.user[50] typename "\"progetto.User\""
par DatabaseNetwork.user[50] userId 50
par DatabaseNetwork.user[50] lambda 0.05
par DatabaseNetwork.user[50] readProbability 0.9
par DatabaseNetwork.user[50] numTables 20
par DatabaseNetwork.user[50] tableDistribution "\"lognormal\""
par DatabaseNetwork.user[50] serviceTime 0.1s
attr unit s
par DatabaseNetwork.user[50] lognormalM 1.5
par DatabaseNetwork.user[50] lognormalS 1
scalar DatabaseNetwork.user[50] totalAccesses 513
scalar DatabaseNetwork.user[50] totalReads 473
scalar DatabaseNetwork.user[50] totalWrites 40
scalar DatabaseNetwork.user[50] averageWaitTime 0.10070729484421
scalar DatabaseNetwork.user[50] accessesPerSecond 0.0513
par DatabaseNetwork.user[51] typename "\"progetto.User\""
par DatabaseNetwork.user[51] userId 51
par DatabaseNetwork.user[51] lambda 0.05
par DatabaseNetwork.user[51] readProbability 0.9
par DatabaseNetwork.user[51] numTables 20
par DatabaseNetwork.user[51] tableDistribution "\"lognormal\""
par DatabaseNetwork.user[51] serviceTime 0.1s
attr unit s
par DatabaseNetwork.user[51] lognormalM 1.5
par DatabaseNetwork.user[51] lognormalS 1
scalar DatabaseNetwork.user[51] totalAccesses 521
scalar DatabaseNetwork.user[51] totalReads 461
scalar DatabaseNetwork.user[51] totalWrites 60
scalar DatabaseNetwork.user[51] averageWaitTime 0.10082730943326
scalar DatabaseNetwork.user[51] accessesPerSecond 0.0521
par DatabaseNetwork.user[52] typename "\"progetto.User\""
par DatabaseNetwork.user[52] userId 52
par DatabaseNetwork.user[52] lambda 0.05
par DatabaseNetwork.user[52] readProbability 0.9
par DatabaseNetwork.user[52] numTables 20
par DatabaseNetwork.user[52] tableDistribution "\"lognormal\""
par DatabaseNetwork.user[52] serviceTime 0.1s
attr unit s
par DatabaseNetwork.user[52] lognormalM 1.5
par DatabaseNetwork.user[52] lognormalS 1
scalar DatabaseNetwork.user[52] totalAccesses 489
scalar DatabaseNetwork.user[52] totalReads 446
scalar DatabaseNetwork.user[52] totalWrites 43
scalar DatabaseNetwork.user[52] averageWaitTime 0.10034923674296
scalar DatabaseNetwork.user[52] accessesPerSecond 0.0489
par DatabaseNetwork.user[53] typename "\"progetto.User\""
par DatabaseNetwork.user[53] userId 53
par DatabaseNetwork.user[53] lambda 0.05
par DatabaseNetwork.user[53] readProbability 0.9
par DatabaseNetwork.user[53] numTables 20
par DatabaseNetwork.user[53] tableDistribution "\"lognormal\""
par DatabaseNetwork.user[53] serviceTime 0.1s
attr unit s
par DatabaseNetwork.user[53] lognormalM 1.5
par DatabaseNetwork.user[53] lognormalS 1
scalar DatabaseNetwork.user[53] totalAccesses 505
scalar DatabaseNetwork.user[53] totalReads 451
scalar DatabaseNetwork.user[53] totalWrites 54
scalar DatabaseNetwork.user[53] averageWaitTime 0.10083571296675
scalar DatabaseNetwork.user[53] accessesPerSecond 0.0505
par DatabaseNetwork.user[54] typename "\"progetto.User\""
par DatabaseNetwork.user[54] userId 54
par DatabaseNetwork.user[54] lambda 0.05
par DatabaseNetwork.user[54] readProbability 0.9
par DatabaseNetwork.user[54] numTables 20
par DatabaseNetwork.user[54] tableDistribution "\"lognormal\""
par DatabaseNetwork.user[54] serviceTime 0.1s
attr unit s
par DatabaseNetwork.user[54] lognormalM 1.5
par DatabaseNetwork.user[54] lognormalS 1
scalar DatabaseNetwork.user[54] totalAccesses 474
scalar DatabaseNetwork.user[54] totalReads 437
scalar DatabaseNetwork.user[54] totalWrites 37
scalar DatabaseNetwork.user[54] averageWaitTime 0.10069373044824
scalar DatabaseNetwork.user[54] accessesPerSecond 0.0474
par DatabaseNetwork.user[55] typename "\"progetto.User\""
par DatabaseNetwork.user[55] userId 55
par DatabaseNetwork.user[55] lambda 0.05
par DatabaseNetwork.user[55] readProbability 0.9
par DatabaseNetwork.user[55] numTables 20
par DatabaseNetwork.user[55] tableDistribution "\"lognormal\""
par DatabaseNetwork.user[55] serviceTime 0.1s
attr unit s
par DatabaseNetwork.user[55] lognormalM 1.5
par DatabaseNetwork.user[55] lognormalS 1
scalar DatabaseNetwork.user[55] totalAccesses 518
scalar DatabaseNetwork.user[55] totalReads 458
scalar DatabaseNetwork.user[55] totalWrites 60
scalar DatabaseNetwork.user[55] averageWaitTime 0.10131885424876
scalar DatabaseNetwork.user[55] accessesPerSecond 0.0518
par DatabaseNetwork.user[56] typename "\"progetto.User\""
par DatabaseNetwork.user[56] userId 56
par DatabaseNetwork.user[56] lambda 0.05
par DatabaseNetwork.user[56] readProbability 0.9
par DatabaseNetwork.user[56] numTables 20
par DatabaseNetwork.user[56] tableDistribution "\"lognormal\""
par DatabaseNetwork.user[56] serviceTime 0.1s
attr unit s
par DatabaseNetwork.user[56] lognormalM 1.5
par DatabaseNetwork.user[56] lognormalS 1
scalar DatabaseNetwork.user[56] totalAccesses 483
scalar DatabaseNetwork.user[56] totalReads 433
scalar DatabaseNetwork.user[56] totalWrites 50
scalar DatabaseNetwork.user[56] averageWaitTime 0.10109243436335
scalar DatabaseNetwork.user[56] accessesPerSecond 0.0483
par DatabaseNetwork.user[57] typename "\"progetto.User\""
par DatabaseNetwork.user[57] userId 57
par DatabaseNetwork.user[57] lambda 0.05
par DatabaseNetwork.user[57] readProbability 0.9
par DatabaseNetwork.user[57] numTables 20
par DatabaseNetwork.user[57] tableDistribution "\"lognormal\""
par DatabaseNetwork.user[57] serviceTime 0.1s
attr unit s
par DatabaseNetwork.user[57] lognormalM 1.5
par DatabaseNetwork.user[57] lognormalS 1
scalar DatabaseNetwork.user[57] totalAccesses 528
scalar DatabaseNetwork.user[57] totalReads 471
scalar DatabaseNetwork.user[57] totalWrites 57
scalar DatabaseNetwork.user[57] averageWaitTime 0.10117375492806
scalar DatabaseNetwork.user[57] accessesPerSecond 0.0528
par DatabaseNetwork.user[58] typename "\"progetto.User\""
par DatabaseNetwork.user[58] userId 58
par DatabaseNetwork.user[58] lambda 0.05
par DatabaseNetwork.user[58] readProbability 0.9
par DatabaseNetwork.user[58] numTables 20
par DatabaseNetwork.user[58] tableDistribution "\"lognormal\""
par DatabaseNetwork.user[58] serviceTime 0.1s
attr unit s
par DatabaseNetwork.user[58] lognormalM 1.5
par DatabaseNetwork.user[58] lognormalS 1
scalar DatabaseNetwork.user[58] totalAccesses 485
scalar DatabaseNetwork.user[58] totalReads 433
scalar DatabaseNetwork.user[58] totalWrites 52
scalar DatabaseNetwork.user[58] averageWaitTime 0.1007513498906
scalar DatabaseNetwork.user[58] accessesPerSecond 0.0485
par DatabaseNetwork.user[59] typename "\"progetto.User\""
par DatabaseNetwork.user[59] userId 59
par DatabaseNetwork.user[59] lambda 0.05
par DatabaseNetwork.user[59] readProbability 0.9
par DatabaseNetwork.user[59] numTables 20
par DatabaseNetwork.user[59] tableDistribution "\"lognormal\""
par DatabaseNetwork.user[59] serviceTime 0.1s
attr unit s
par DatabaseNetwork.user[59] lognormalM 1.5
par DatabaseNetwork.user[59] lognormalS 1
scalar DatabaseNetwork.user[59] totalAccesses 524
scalar DatabaseNetwork.user[59] totalReads 473
scalar DatabaseNetwork.user[59] totalWrites 51
scalar DatabaseNetwork.user[59] averageWaitTime 0.10079537338603
scalar DatabaseNetwork.user[59] accessesPerSecond 0.0524
par DatabaseNetwork.user[60] typename "\"progetto.User\""
par DatabaseNetwork.user[60] userId 60
par DatabaseNetwork.user[60] lambda 0.05
par DatabaseNetwork.user[60] readProbability 0.9
par DatabaseNetwork.user[60] numTables 20
par DatabaseNetwork.user[60] tableDistribution "\"lognormal\""
par DatabaseNetwork.user[60] serviceTime 0.1s
attr unit s
par DatabaseNetwork.user[60] lognormalM 1.5
par DatabaseNetwork.user[60] lognormalS 1
scalar DatabaseNetwork.user[60] totalAccesses 524
scalar DatabaseNetwork.user[60] totalReads 474
scalar DatabaseNetwork.user[60] totalWrites 50
scalar DatabaseNetwork.user[60] averageWaitTime 0.10172128132265
scalar DatabaseNetwork.user[60] accessesPerSecond 0.0524
par DatabaseNetwork.user[61] typename "\"progetto.User\""
par DatabaseNetwork.user[61] userId 61
par DatabaseNetwork.user[61] lambda 0.05
par DatabaseNetwork.user[61] readProbability 0.9
par DatabaseNetwork.user[61] numTables 20
par DatabaseNetwork.user[61] tableDistribution "\"lognormal\""
par DatabaseNetwork.user[61] serviceTime 0.1s
attr unit s
par DatabaseNetwork.user[61] lognormalM 1.5
par DatabaseNetwork.user[61] lognormalS 1
scalar DatabaseNetwork.user[61] totalAccesses 506
scalar DatabaseNetwork.user[61] totalReads 459
scalar DatabaseNetwork.user[61] totalWrites 47
scalar DatabaseNetwork.user[61] averageWaitTime 0.10076343577131
scalar DatabaseNetwork.user[61] accessesPerSecond 0.0506
par DatabaseNetwork.user[62] typename "\"progetto.User\""
par DatabaseNetwork.user[62] userId 62
par DatabaseNetwork.user[62] lambda 0.05
par DatabaseNetwork.user[62] readProbability 0.9
par DatabaseNetwork.user[62] numTables 20
par DatabaseNetwork.user[62] tableDistribution "\"lognormal\""
par DatabaseNetwork.user[62] serviceTime 0.1s
attr unit s
par DatabaseNetwork.user[62] lognormalM 1.5
par DatabaseNetwork.user[62] lognormalS 1
scalar DatabaseNetwork.user[62] totalAccesses 576
scalar DatabaseNetwork.user[62] totalReads 513
scalar DatabaseNetwork.user[62] totalWrites 63
scalar DatabaseNetwork.user[62] averageWaitTime 0.10064959995167
scalar DatabaseNetwork.user[62] accessesPerSecond 0.0576
par DatabaseNetwork.user[63] typename "\"progetto.User\""
par DatabaseNetwork.user[63] userId 63
par DatabaseNetwork.user[63] lambda 0.05
par DatabaseNetwork.user[63] readProbability 0.9
par DatabaseNetwork.user[63] numTables 20
par DatabaseNetwork.user[63] tableDistribution "\"lognormal\""
par DatabaseNetwork.user[63] serviceTime 0.1s
attr unit s
par DatabaseNetwork.user[63] lognormalM 1.5
par DatabaseNetwork.user[63] lognormalS 1
scalar DatabaseNetwork.user[63] totalAccesses 505
scalar DatabaseNetwork.user[63] totalReads 458
scalar DatabaseNetwork.user[63] totalWrites 47
scalar DatabaseNetwork.user[63] averageWaitTime 0.10149134301306
scalar DatabaseNetwork.user[63] accessesPerSecond 0.0505
par DatabaseNetwork.user[64] typename "\"progetto.User\""
par DatabaseNetwork.user[64] userId 64
par DatabaseNetwork.user[64] lambda 0.05
par DatabaseNetwork.user[64] readProbability 0.9
par DatabaseNetwork.user[64] numTables 20
par DatabaseNetwork.user[64] tableDistribution "\"lognormal\""
par DatabaseNetwork.user[64] serviceTime 0.1s
attr unit s
par DatabaseNetwork.user[64] lognormalM 1.5
par DatabaseNetwork.user[64] lognormalS 1
scalar DatabaseNetwork.user[64] totalAccesses 496
scalar DatabaseNetwork.user[64] totalReads 445
scalar DatabaseNetwork.user[64] totalWrites 51
scalar DatabaseNetwork.user[64] averageWaitTime 0.10133731220925
scalar DatabaseNetwork.user[64] accessesPerSecond 0.0496
par DatabaseNetwork.user[65] typename "\"progetto.User\""
par DatabaseNetwork.user[65] userId 65
par DatabaseNetwork.user[65] lambda 0.05
par DatabaseNetwork.user[65] readProbability 0.9
par DatabaseNetwork.user[65] numTables 20
par DatabaseNetwork.user[65] tableDistribution "\"lognormal\""
par DatabaseNetwork.user[65] serviceTime 0.1s
attr unit s
par DatabaseNetwork.user[65] lognormalM 1.5
par DatabaseNetwork.user[65] lognormalS 1
scalar DatabaseNetwork.user[65] totalAccesses 505
scalar DatabaseNetwork.user[65] totalReads 452
scalar DatabaseNetwork.user[65] totalWrites 53
scalar DatabaseNetwork.user[65] averageWaitTime 0.10070530241073
scalar DatabaseNetwork.user[65] accessesPerSecond 0.0505
par DatabaseNetwork.user[66] typename "\"progetto.User\""
par DatabaseNetwork.user[66] userId 66
par DatabaseNetwork.user[66] lambda 0.05
par DatabaseNetwork.user[66] readProbability 0.9
par DatabaseNetwork.user[66] numTables 20
par DatabaseNetwork.user[66] tableDistribution "\"lognormal\""
par DatabaseNetwork.user[66] serviceTime 0.1s
attr unit s
par DatabaseNetwork.user[66] lognormalM 1.5
par DatabaseNetwork.user[66] lognormalS 1
scalar DatabaseNetwork.user[66] totalAccesses 524
scalar DatabaseNetwork.user[66] totalReads 477
scalar DatabaseNetwork.user[66] totalWrites 47
scalar DatabaseNetwork.user[66] averageWaitTime 0.10022930628318
scalar DatabaseNetwork.user[66] accessesPerSecond 0.0524
par DatabaseNetwork.user[67] typename "\"progetto.User\""
par DatabaseNetwork.user[67] userId 67
par DatabaseNetwork.user[67] lambda 0.05
par DatabaseNetwork.user[67] readProbability 0.9
par DatabaseNetwork.user[67] numTables 20
par DatabaseNetwork.user[67] tableDistribution "\"lognormal\""
par DatabaseNetwork.user[67] serviceTime 0.1s
attr unit s
par DatabaseNetwork.user[67] lognormalM 1.5
par DatabaseNetwork.user[67] lognormalS 1
scalar DatabaseNetwork.user[67] totalAccesses 516
scalar DatabaseNetwork.user[67] totalReads 481
scalar DatabaseNetwork.user[67] totalWrites 35
scalar DatabaseNetwork.user[67] averageWaitTime 0.10071760659711
scalar DatabaseNetwork.user[67] accessesPerSecond 0.0516
par DatabaseNetwork.user[68] typename "\"progetto.User\""
par DatabaseNetwork.user[68] userId 68
par DatabaseNetwork.user[68] lambda 0.05
par DatabaseNetwork.user[68] readProbability 0.9
par DatabaseNetwork.user[68] numTables 20
par DatabaseNetwork.user[68] tableDistribution "\"lognormal\""
par DatabaseNetwork.user[68] serviceTime 0.1s
attr unit s
par DatabaseNetwork.user[68] lognormalM 1.5
par DatabaseNetwork.user[68] lognormalS 1
scalar DatabaseNetwork.user[68] totalAccesses 465
scalar DatabaseNetwork.user[68] totalReads 419
scalar DatabaseNetwork.user[68] totalWrites 46
scalar DatabaseNetwork.user[68] averageWaitTime 0.10115527156253
scalar DatabaseNetwork.user[68] accessesPerSecond 0.0465
par DatabaseNetwork.user[69] typename "\"progetto.User\""
par DatabaseNetwork.user[69] userId 69
par DatabaseNetwork.user[69] lambda 0.05
par DatabaseNetwork.user[69] readProbability 0.9
par DatabaseNetwork.user[69] numTables 20
par DatabaseNetwork.user[69] tableDistribution "\"lognormal\""
par DatabaseNetwork.user[69] serviceTime 0.1s
attr unit s
par DatabaseNetwork.user[69] lognormalM 1.5
par DatabaseNetwork.user[69] lognormalS 1
scalar DatabaseNetwork.user[69] totalAccesses 549
scalar DatabaseNetwork.user[69] totalReads 484
scalar DatabaseNetwork.user[69] totalWrites 65
scalar DatabaseNetwork.user[69] averageWaitTime 0.10051442278686
scalar DatabaseNetwork.user[69] accessesPerSecond 0.0549
par DatabaseNetwork.user[70] typename "\"progetto.User\""
par DatabaseNetwork.user[70] userId 70
par DatabaseNetwork.user[70] lambda 0.05
par DatabaseNetwork.user[70] readProbability 0.9
par DatabaseNetwork.user[70] numTables 20
par DatabaseNetwork.user[70] tableDistribution "\"lognormal\""
par DatabaseNetwork.user[70] serviceTime 0.1s
attr unit s
par DatabaseNetwork.user[70] lognormalM 1.5
par DatabaseNetwork.user[70] lognormalS 1
scalar DatabaseNetwork.user[70] totalAccesses 490
scalar DatabaseNetwork.user[70] totalReads 445
scalar DatabaseNetwork.user[70] totalWrites 45
scalar DatabaseNetwork.user[70] averageWaitTime 0.1015790478387
scalar DatabaseNetwork.user[70] accessesPerSecond 0.049
par DatabaseNetwork.user[71] typename "\"progetto.User\""
par DatabaseNetwork.user[71] userId 71
par DatabaseNetwork.user[71] lambda 0.05
par DatabaseNetwork.user[71] readProbability 0.9
par DatabaseNetwork.user[71] numTables 20
par DatabaseNetwork.user[71] tableDistribution "\"lognormal\""
par DatabaseNetwork.user[71] serviceTime 0.1s
attr unit s
par DatabaseNetwork.user[71] lognormalM 1.5
par DatabaseNetwork.user[71] lognormalS 1
scalar DatabaseNetwork.user[71] totalAccesses 503
scalar DatabaseNetwork.user[71] totalReads 455
scalar DatabaseNetwork.user[71] totalWrites 48
scalar DatabaseNetwork.user[71] averageWaitTime 0.10128706502129
scalar DatabaseNetwork.user[71] accessesPerSecond 0.0503
par DatabaseNetwork.user[72] typename "\"progetto.User\""
par DatabaseNetwork.user[72] userId 72
par DatabaseNetwork.user[72] lambda 0.05
par DatabaseNetwork.user[72] readProbability 0.9
par DatabaseNetwork.user[72] numTables 20
par DatabaseNetwork.user[72] tableDistribution "\"lognormal\""
par DatabaseNetwork.user[72] serviceTime 0.1s
attr unit s
par DatabaseNetwork.user[72] lognormalM 1.5
par DatabaseNetwork.user[72] lognormalS 1
scalar DatabaseNetwork.user[72] totalAccesses 502
scalar DatabaseNetwork.user[72] totalReads 457
scalar DatabaseNetwork.user[72] totalWrites 45
scalar DatabaseNetwork.user[72] averageWaitTime 0.10037069902394
scalar DatabaseNetwork.user[72] accessesPerSecond 0.0502
par DatabaseNetwork.user[73] typename "\"progetto.User\""
par DatabaseNetwork.user[73] userId 73
par DatabaseNetwork.user[73] lambda 0.05
par DatabaseNetwork.user[73] readProbability 0.9
par DatabaseNetwork.user[73] numTables 20
par DatabaseNetwork.user[73] tableDistribution "\"lognormal\""
par DatabaseNetwork.user[73] serviceTime 0.1s
attr unit s
par DatabaseNetwork.user[73] lognormalM 1.5
par DatabaseNetwork.user[73] lognormalS 1
scalar DatabaseNetwork.user[73] totalAccesses 486
scalar DatabaseNetwork.user[73] totalReads 443
scalar DatabaseNetwork.user[73] totalWrites 43
scalar DatabaseNetwork.user[73] averageWaitTime 0.10106942412255
scalar DatabaseNetwork.user[73] accessesPerSecond 0.0486
par DatabaseNetwork.user[74] typename "\"progetto.User\""
par DatabaseNetwork.user[74] userId 74
par DatabaseNetwork.user[74] lambda 0.05
par DatabaseNetwork.user[74] readProbability 0.9
par DatabaseNetwork.user[74] numTables 20
par DatabaseNetwork.user[74] tableDistribution "\"lognormal\""
par DatabaseNetwork.user[74] serviceTime 0.1s
attr unit s
par DatabaseNetwork.user[74] lognormalM 1.5
par DatabaseNetwork.user[74] lognormalS 1
scalar DatabaseNetwork.user[74] totalAccesses 477
scalar DatabaseNetwork.user[74] totalReads 432
scalar DatabaseNetwork.user[74] totalWrites 45
scalar DatabaseNetwork.user[74] averageWaitTime 0.10143831767941
scalar DatabaseNetwork.user[74] accessesPerSecond 0.0477
par DatabaseNetwork.user[75] typename "\"progetto.User\""
par DatabaseNetwork.user[75] userId 75
par DatabaseNetwork.user[75] lambda 0.05
par DatabaseNetwork.user[75] readProbability 0.9
par DatabaseNetwork.user[75] numTables 20
par DatabaseNetwork.user[75] tableDistribution "\"lognormal\""
par DatabaseNetwork.user[75] serviceTime 0.1s
attr unit s
par DatabaseNetwork.user[75] lognormalM 1.5
par DatabaseNetwork.user[75] lognormalS 1
scalar DatabaseNetwork.user[75] totalAccesses 502
scalar DatabaseNetwork.user[75] totalReads 457
scalar DatabaseNetwork.user[75] totalWrites 45
scalar DatabaseNetwork.user[75] averageWaitTime 0.10030505103037
scalar DatabaseNetwork.user[75] accessesPerSecond 0.0502
par DatabaseNetwork.user[76] typename "\"progetto.User\""
par DatabaseNetwork.user[76] userId 76
par DatabaseNetwork.user[76] lambda 0.05
par DatabaseNetwork.user[76] readProbability 0.9
par DatabaseNetwork.user[76] numTables 20
par DatabaseNetwork.user[76] tableDistribution "\"lognormal\""
par DatabaseNetwork.user[76] serviceTime 0.1s
attr unit s
par DatabaseNetwork.user[76] lognormalM 1.5
par DatabaseNetwork.user[76] lognormalS 1
scalar DatabaseNetwork.user[76] totalAccesses 499
scalar DatabaseNetwork.user[76] totalReads 458
scalar DatabaseNetwork.user[76] totalWrites 41
scalar DatabaseNetwork.user[76] averageWaitTime 0.10085641912697
scalar DatabaseNetwork.user[76] accessesPerSecond 0.0499
par DatabaseNetwork.user[77] typename "\"progetto.User\""
par DatabaseNetwork.user[77] userId 77
par DatabaseNetwork.user[77] lambda 0.05
par DatabaseNetwork.user[77] readProbability 0.9
par DatabaseNetwork.user[77] numTables 20
par DatabaseNetwork.user[77] tableDistribution "\"lognormal\""
par DatabaseNetwork.user[77] serviceTime 0.1s
attr unit s
par DatabaseNetwork.user[77] lognormalM 1.5
par DatabaseNetwork.user[77] lognormalS 1
scalar DatabaseNetwork.user[77] totalAccesses 515
scalar DatabaseNetwork.user[77] totalReads 467
scalar DatabaseNetwork.user[77] totalWrites 48
scalar DatabaseNetwork.user[77] averageWaitTime 0.1003158637929
scalar DatabaseNetwork.user[77] accessesPerSecond 0.0515
par DatabaseNetwork.user[78] typename "\"progetto.User\""
par DatabaseNetwork.user[78] userId 78
par DatabaseNetwork.user[78] lambda 0.05
par DatabaseNetwork.user[78] readProbability 0.9
par DatabaseNetwork.user[78] numTables 20
par DatabaseNetwork.user[78] tableDistribution "\"lognormal\""
par DatabaseNetwork.user[78] serviceTime 0.1s
attr unit s
par DatabaseNetwork.user[78] lognormalM 1.5
par DatabaseNetwork.user[78] lognormalS 1
scalar DatabaseNetwork.user[78] totalAccesses 498
scalar DatabaseNetwork.user[78] totalReads 444
scalar DatabaseNetwork.user[78] totalWrites 54
scalar DatabaseNetwork.user[78] averageWaitTime 0.10114769389517
scalar DatabaseNetwork.user[78] accessesPerSecond 0.0498
par DatabaseNetwork.user[79] typename "\"progetto.User\""
par DatabaseNetwork.user[79] userId 79
par DatabaseNetwork.user[79] lambda 0.05
par DatabaseNetwork.user[79] readProbability 0.9
par DatabaseNetwork.user[79] numTables 20
par DatabaseNetwork.user[79] tableDistribution "\"lognormal\""
par DatabaseNetwork.user[79] serviceTime 0.1s
attr unit s
par DatabaseNetwork.user[79] lognormalM 1.5
par DatabaseNetwork.user[79] lognormalS 1
scalar DatabaseNetwork.user[79] totalAccesses 500
scalar DatabaseNetwork.user[79] totalReads 448
scalar DatabaseNetwork.user[79] totalWrites 52
scalar DatabaseNetwork.user[79] averageWaitTime 0.10048177867646
scalar DatabaseNetwork.user[79] accessesPerSecond 0.05
par DatabaseNetwork.user[80] typename "\"progetto.User\""
par DatabaseNetwork.user[80] userId 80
par DatabaseNetwork.user[80] lambda 0.05
par DatabaseNetwork.user[80] readProbability 0.9
par DatabaseNetwork.user[80] numTables 20
par DatabaseNetwork.user[80] tableDistribution "\"lognormal\""
par DatabaseNetwork.user[80] serviceTime 0.1s
attr unit s
par DatabaseNetwork.user[80] lognormalM 1.5
par DatabaseNetwork.user[80] lognormalS 1
scalar DatabaseNetwork.user[80] totalAccesses 463
scalar DatabaseNetwork.user[80] totalReads 416
scalar DatabaseNetwork.user[80] totalWrites 47
scalar DatabaseNetwork.user[80] averageWaitTime 0.10096808862976
scalar DatabaseNetwork.user[80] accessesPerSecond 0.0463
par DatabaseNetwork.user[81] typename "\"progetto.User\""
par DatabaseNetwork.user[81] userId 81
par DatabaseNetwork.user[81] lambda 0.05
par DatabaseNetwork.user[81] readProbability 0.9
par DatabaseNetwork.user[81] numTables 20
par DatabaseNetwork.user[81] tableDistribution "\"lognormal\""
par DatabaseNetwork.user[81] serviceTime 0.1s
attr unit s
par DatabaseNetwork.user[81] lognormalM 1.5
par DatabaseNetwork.user[81] lognormalS 1
scalar DatabaseNetwork.user[81] totalAccesses 499
scalar DatabaseNetwork.user[81] totalReads 451
scalar DatabaseNetwork.user[81] totalWrites 48
scalar DatabaseNetwork.user[81] averageWaitTime 0.10025453291472
scalar DatabaseNetwork.user[81] accessesPerSecond 0.0499
par DatabaseNetwork.user[82] typename "\"progetto.User\""
par DatabaseNetwork.user[82] userId 82
par DatabaseNetwork.user[82] lambda 0.05
par DatabaseNetwork.user[82] readProbability 0.9
par DatabaseNetwork.user[82] numTables 20
par DatabaseNetwork.user[82] tableDistribution "\"lognormal\""
par DatabaseNetwork.user[82] serviceTime 0.1s
attr unit s
par DatabaseNetwork.user[82] lognormalM 1.5
par DatabaseNetwork.user[82] lognormalS 1
scalar DatabaseNetwork.user[82] totalAccesses 522
scalar DatabaseNetwork.user[82] totalReads 482
scalar DatabaseNetwork.user[82] totalWrites 40
scalar DatabaseNetwork.user[82] averageWaitTime 0.10032765670231
scalar DatabaseNetwork.user[82] accessesPerSecond 0.0522
par DatabaseNetwork.user[83] typename "\"progetto.User\""
par DatabaseNetwork.user[83] userId 83
par DatabaseNetwork.user[83] lambda 0.05
par DatabaseNetwork.user[83] readProbability 0.9
par DatabaseNetwork.user[83] numTables 20
par DatabaseNetwork.user[83] tableDistribution "\"lognormal\""
par DatabaseNetwork.user[83] serviceTime 0.1s
attr unit s
par DatabaseNetwork.user[83] lognormalM 1.5
par DatabaseNetwork.user[83] lognormalS 1
scalar DatabaseNetwork.user[83] totalAccesses 514
scalar DatabaseNetwork.user[83] totalReads 461
scalar DatabaseNetwork.user[83] totalWrites 53
scalar DatabaseNetwork.user[83] averageWaitTime 0.10023783627517
scalar DatabaseNetwork.user[83] accessesPerSecond 0.0514
par DatabaseNetwork.user[84] typename "\"progetto.User\""
par DatabaseNetwork.user[84] userId 84
par DatabaseNetwork.user[84] lambda 0.05
par DatabaseNetwork.user[84] readProbability 0.9
par DatabaseNetwork.user[84] numTables 20
par DatabaseNetwork.user[84] tableDistribution "\"lognormal\""
par DatabaseNetwork.user[84] serviceTime 0.1s
attr unit s
par DatabaseNetwork.user[84] lognormalM 1.5
par DatabaseNetwork.user[84] lognormalS 1
scalar DatabaseNetwork.user[84] totalAccesses 473
scalar DatabaseNetwork.user[84] totalReads 419
scalar DatabaseNetwork.user[84] totalWrites 54
scalar DatabaseNetwork.user[84] averageWaitTime 0.10118745913274
scalar DatabaseNetwork.user[84] accessesPerSecond 0.0473
par DatabaseNetwork.user[85] typename "\"progetto.User\""
par DatabaseNetwork.user[85] userId 85
par DatabaseNetwork.user[85] lambda 0.05
par DatabaseNetwork.user[85] readProbability 0.9
par DatabaseNetwork.user[85] numTables 20
par DatabaseNetwork.user[85] tableDistribution "\"lognormal\""
par DatabaseNetwork.user[85] serviceTime 0.1s
attr unit s
par DatabaseNetwork.user[85] lognormalM 1.5
par DatabaseNetwork.user[85] lognormalS 1
scalar DatabaseNetwork.user[85] totalAccesses 524
scalar DatabaseNetwork.user[85] totalReads 475
scalar DatabaseNetwork.user[85] totalWrites 49
scalar DatabaseNetwork.user[85] averageWaitTime 0.10056298680347
scalar DatabaseNetwork.user[85] accessesPerSecond 0.0524
par DatabaseNetwork.user[86] typename "\"progetto.User\""
par DatabaseNetwork.user[86] userId 86
par DatabaseNetwork.user[86] lambda 0.05
par DatabaseNetwork.user[86] readProbability 0.9
par DatabaseNetwork.user[86] numTables 20
par DatabaseNetwork.user[86] tableDistribution "\"lognormal\""
par DatabaseNetwork.user[86] serviceTime 0.1s
attr unit s
par DatabaseNetwork.user[86] lognormalM 1.5
par DatabaseNetwork.user[86] lognormalS 1
scalar DatabaseNetwork.user[86] totalAccesses 522
scalar DatabaseNetwork.user[86] totalReads 481
scalar DatabaseNetwork.user[86] totalWrites 41
scalar DatabaseNetwork.user[86] averageWaitTime 0.10030254240703
scalar DatabaseNetwork.user[86] accessesPerSecond 0.0522
par DatabaseNetwork.user[87] typename "\"progetto.User\""
par DatabaseNetwork.user[87] userId 87
par DatabaseNetwork.user[87] lambda 0.05
par DatabaseNetwork.user[87] readProbability 0.9
par DatabaseNetwork.user[87] numTables 20
par DatabaseNetwork.user[87] tableDistribution "\"lognormal\""
par DatabaseNetwork.user[87] serviceTime 0.1s
attr unit s
par DatabaseNetwork.user[87] lognormalM 1.5
par DatabaseNetwork.user[87] lognormalS 1
scalar DatabaseNetwork.user[87] totalAccesses 518
scalar DatabaseNetwork.user[87] totalReads 464
scalar DatabaseNetwork.user[87] totalWrites 54
scalar DatabaseNetwork.user[87] averageWaitTime 0.10075212457784
scalar DatabaseNetwork.user[87] accessesPerSecond 0.0518
par DatabaseNetwork.user[88] typename "\"progetto.User\""
par DatabaseNetwork.user[88] userId 88
par DatabaseNetwork.user[88] lambda 0.05
par DatabaseNetwork.user[88] readProbability 0.9
par DatabaseNetwork.user[88] numTables 20
par DatabaseNetwork.user[88] tableDistribution "\"lognormal\""
par DatabaseNetwork.user[88] serviceTime 0.1s
attr unit s
par DatabaseNetwork.user[88] lognormalM 1.5
par DatabaseNetwork.user[88] lognormalS 1
scalar DatabaseNetwork.user[88] totalAccesses 483
scalar DatabaseNetwork.user[88] totalReads 424
scalar DatabaseNetwork.user[88] totalWrites 59
scalar DatabaseNetwork.user[88] averageWaitTime 0.10085551492442
scalar DatabaseNetwork.user[88] accessesPerSecond 0.0483
par DatabaseNetwork.user[89] typename "\"progetto.User\""
par DatabaseNetwork.user[89] userId 89
par DatabaseNetwork.user[89] lambda 0.05
par DatabaseNetwork.user[89] readProbability 0.9
par DatabaseNetwork.user[89] numTables 20
par DatabaseNetwork.user[89] tableDistribution "\"lognormal\""
par DatabaseNetwork.user[89] serviceTime 0.1s
attr unit s
par DatabaseNetwork.user[89] lognormalM 1.5
par DatabaseNetwork.user[89] lognormalS 1
scalar DatabaseNetwork.user[89] totalAccesses 522
scalar DatabaseNetwork.user[89] totalReads 468
scalar DatabaseNetwork.user[89] totalWrites 54
scalar DatabaseNetwork.user[89] averageWaitTime 0.10071236772389
scalar DatabaseNetwork.user[89] accessesPerSecond 0.0522
par DatabaseNetwork.user[90] typename "\"progetto.User\""
par DatabaseNetwork.user[90] userId 90
par DatabaseNetwork.user[90] lambda 0.05
par DatabaseNetwork.user[90] readProbability 0.9
par DatabaseNetwork.user[90] numTables 20
par DatabaseNetwork.user[90] tableDistribution "\"lognormal\""
par DatabaseNetwork.user[90] serviceTime 0.1s
attr unit s
par DatabaseNetwork.user[90] lognormalM 1.5
par DatabaseNetwork.user[90] lognormalS 1
scalar DatabaseNetwork.user[90] totalAccesses 497
scalar DatabaseNetwork.user[90] totalReads 444
scalar DatabaseNetwork.user[90] totalWrites 53
scalar DatabaseNetwork.user[90] averageWaitTime 0.10106421527932
scalar DatabaseNetwork.user[90] accessesPerSecond 0.0497
par DatabaseNetwork.user[91] typename "\"progetto.User\""
par DatabaseNetwork.user[91] userId 91
par DatabaseNetwork.user[91] lambda 0.05
par DatabaseNetwork.user[91] readProbability 0.9
par DatabaseNetwork.user[91] numTables 20
par DatabaseNetwork.user[91] tableDistribution "\"lognormal\""
par DatabaseNetwork.user[91] serviceTime 0.1s
attr unit s
par DatabaseNetwork.user[91] lognormalM 1.5
par DatabaseNetwork.user[91] lognormalS 1
scalar DatabaseNetwork.user[91] totalAccesses 478
scalar DatabaseNetwork.user[91] totalReads 423
scalar DatabaseNetwork.user[91] totalWrites 55
scalar DatabaseNetwork.user[91] averageWaitTime 0.10082648536737
scalar DatabaseNetwork.user[91] accessesPerSecond 0.0478
par DatabaseNetwork.user[92] typename "\"progetto.User\""
par DatabaseNetwork.user[92] userId 92
par DatabaseNetwork.user[92] lambda 0.05
par DatabaseNetwork.user[92] readProbability 0.9
par DatabaseNetwork.user[92] numTables 20
par DatabaseNetwork.user[92] tableDistribution "\"lognormal\""
par DatabaseNetwork.user[92] serviceTime 0.1s
attr unit s
par DatabaseNetwork.user[92] lognormalM 1.5
par DatabaseNetwork.user[92] lognormalS 1
scalar DatabaseNetwork.user[92] totalAccesses 506
scalar DatabaseNetwork.user[92] totalReads 450
scalar DatabaseNetwork.user[92] totalWrites 56
scalar DatabaseNetwork.user[92] averageWaitTime 0.10016165417274
scalar DatabaseNetwork.user[92] accessesPerSecond 0.0506
par DatabaseNetwork.user[93] typename "\"progetto.User\""
par DatabaseNetwork.user[93] userId 93
par DatabaseNetwork.user[93] lambda 0.05
par DatabaseNetwork.user[93] readProbability 0.9
par DatabaseNetwork.user[93] numTables 20
par DatabaseNetwork.user[93] tableDistribution "\"lognormal\""
par DatabaseNetwork.user[93] serviceTime 0.1s
attr unit s
par DatabaseNetwork.user[93] lognormalM 1.5
par DatabaseNetwork.user[93] lognormalS 1
scalar DatabaseNetwork.user[93] totalAccesses 508
scalar DatabaseNetwork.user[93] totalReads 462
scalar DatabaseNetwork.user[93] totalWrites 46
scalar DatabaseNetwork.user[93] averageWaitTime 0.10019622994114
scalar DatabaseNetwork.user[93] accessesPerSecond 0.0508
par DatabaseNetwork.user[94] typename "\"progetto.User\""
par DatabaseNetwork.user[94] userId 94
par DatabaseNetwork.user[94] lambda 0.05
par DatabaseNetwork.user[94] readProbability 0.9
par DatabaseNetwork.user[94] numTables 20
par DatabaseNetwork.user[94] tableDistribution "\"lognormal\""
par DatabaseNetwork.user[94] serviceTime 0.1s
attr unit s
par DatabaseNetwork.user[94] lognormalM 1.5
par DatabaseNetwork.user[94] lognormalS 1
scalar DatabaseNetwork.user[94] totalAccesses 501
scalar DatabaseNetwork.user[94] totalReads 441
scalar DatabaseNetwork.user[94] totalWrites 60
scalar DatabaseNetwork.user[94] averageWaitTime 0.10057787766184
scalar DatabaseNetwork.user[94] accessesPerSecond 0.0501
par DatabaseNetwork.user[95] typename "\"progetto.User\""
par DatabaseNetwork.user[95] userId 95
par DatabaseNetwork.user[95] lambda 0.05
par DatabaseNetwork.user[95] readProbability 0.9
par DatabaseNetwork.user[95] numTables 20
par DatabaseNetwork.user[95] tableDistribution "\"lognormal\""
par DatabaseNetwork.user[95] serviceTime 0.1s
attr unit s
par DatabaseNetwork.user[95] lognormalM 1.5
par DatabaseNetwork.user[95] lognormalS 1
scalar DatabaseNetwork.user[95] totalAccesses 489
scalar DatabaseNetwork.user[95] totalReads 434
scalar DatabaseNetwork.user[95] totalWrites 55
scalar DatabaseNetwork.user[95] averageWaitTime 0.10085805152157
scalar DatabaseNetwork.user[95] accessesPerSecond 0.0489
par DatabaseNetwork.user[96] typename "\"progetto.User\""
par DatabaseNetwork.user[96] userId 96
par DatabaseNetwork.user[96] lambda 0.05
par DatabaseNetwork.user[96] readProbability 0.9
par DatabaseNetwork.user[96] numTables 20
par DatabaseNetwork.user[96] tableDistribution "\"lognormal\""
par DatabaseNetwork.user[96] serviceTime 0.1s
attr unit s
par DatabaseNetwork.user[96] lognormalM 1.5
par DatabaseNetwork.user[96] lognormalS 1
scalar DatabaseNetwork.user[96] totalAccesses 527
scalar DatabaseNetwork.user[96] totalReads 489
scalar DatabaseNetwork.user[96] totalWrites 38
scalar DatabaseNetwork.user[96] averageWaitTime 0.10077476115753
scalar DatabaseNetwork.user[96] accessesPerSecond 0.0527
par DatabaseNetwork.user[97] typename "\"progetto.User\""
par DatabaseNetwork.user[97] userId 97
par DatabaseNetwork.user[97] lambda 0.05
par DatabaseNetwork.user[97] readProbability 0.9
par DatabaseNetwork.user[97] numTables 20
par DatabaseNetwork.user[97] tableDistribution "\"lognormal\""
par DatabaseNetwork.user[97] serviceTime 0.1s
attr unit s
par DatabaseNetwork.user[97] lognormalM 1.5
par DatabaseNetwork.user[97] lognormalS 1
scalar DatabaseNetwork.user[97] totalAccesses 485
scalar DatabaseNetwork.user[97] totalReads 430
scalar DatabaseNetwork.user[97] totalWrites 55
scalar DatabaseNetwork.user[97] averageWaitTime 0.1008634920327
scalar DatabaseNetwork.user[97] accessesPerSecond 0.0485
par DatabaseNetwork.user[98] typename "\"progetto.User\""
par DatabaseNetwork.user[98] userId 98
par DatabaseNetwork.user[98] lambda 0.05
par DatabaseNetwork.user[98] readProbability 0.9
par DatabaseNetwork.user[98] numTables 20
par DatabaseNetwork.user[98] tableDistribution "\"lognormal\""
par DatabaseNetwork.user[98] serviceTime 0.1s
attr unit s
par DatabaseNetwork.user[98] lognormalM 1.5
par DatabaseNetwork.user[98] lognormalS 1
scalar DatabaseNetwork.user[98] totalAccesses 464
scalar DatabaseNetwork.user[98] totalReads 426
scalar DatabaseNetwork.user[98] totalWrites 38
scalar DatabaseNetwork.user[98] averageWaitTime 0.10097440014608
scalar DatabaseNetwork.user[98] accessesPerSecond 0.0464
par DatabaseNetwork.user[99] typename "\"progetto.User\""
par DatabaseNetwork.user[99] userId 99
par DatabaseNetwork.user[99] lambda 0.05
par DatabaseNetwork.user[99] readProbability 0.9
par DatabaseNetwork.user[99] numTables 20
par DatabaseNetwork.user[99] tableDistribution "\"lognormal\""
par DatabaseNetwork.user[99] serviceTime 0.1s
attr unit s
par DatabaseNetwork.user[99] lognormalM 1.5
par DatabaseNetwork.user[99] lognormalS 1
scalar DatabaseNetwork.user[99] totalAccesses 498
scalar DatabaseNetwork.user[99] totalReads 448
scalar DatabaseNetwork.user[99] totalWrites 50
scalar DatabaseNetwork.user[99] averageWaitTime 0.1005695492699
scalar DatabaseNetwork.user[99] accessesPerSecond 0.0498
par DatabaseNetwork.user[100] typename "\"progetto.User\""
par DatabaseNetwork.user[100] userId 100
par DatabaseNetwork.user[100] lambda 0.05
par DatabaseNetwork.user[100] readProbability 0.9
par DatabaseNetwork.user[100] numTables 20
par DatabaseNetwork.user[100] tableDistribution "\"lognormal\""
par DatabaseNetwork.user[100] serviceTime 0.1s
attr unit s
par DatabaseNetwork.user[100] lognormalM 1.5
par DatabaseNetwork.user[100] lognormalS 1
scalar DatabaseNetwork.user[100] totalAccesses 528
scalar DatabaseNetwork.user[100] totalReads 477
scalar DatabaseNetwork.user[100] totalWrites 51
scalar DatabaseNetwork.user[100] averageWaitTime 0.10093262060351
scalar DatabaseNetwork.user[100] accessesPerSecond 0.0528
par DatabaseNetwork.user[101] typename "\"progetto.User\""
par DatabaseNetwork.user[101] userId 101
par DatabaseNetwork.user[101] lambda 0.05
par DatabaseNetwork.user[101] readProbability 0.9
par DatabaseNetwork.user[101] numTables 20
par DatabaseNetwork.user[101] tableDistribution "\"lognormal\""
par DatabaseNetwork.user[101] serviceTime 0.1s
attr unit s
par DatabaseNetwork.user[101] lognormalM 1.5
par DatabaseNetwork.user[101] lognormalS 1
scalar DatabaseNetwork.user[101] totalAccesses 489
scalar DatabaseNetwork.user[101] totalReads 440
scalar DatabaseNetwork.user[101] totalWrites 49
scalar DatabaseNetwork.user[101] averageWaitTime 0.10029023494803
scalar DatabaseNetwork.user[101] accessesPerSecond 0.0489
par DatabaseNetwork.user[102] typename "\"progetto.User\""
par DatabaseNetwork.user[102] userId 102
par DatabaseNetwork.user[102] lambda 0.05
par DatabaseNetwork.user[102] readProbability 0.9
par DatabaseNetwork.user[102] numTables 20
par DatabaseNetwork.user[102] tableDistribution "\"lognormal\""
par DatabaseNetwork.user[102] serviceTime 0.1s
attr unit s
par DatabaseNetwork.user[102] lognormalM 1.5
par DatabaseNetwork.user[102] lognormalS 1
scalar DatabaseNetwork.user[102] totalAccesses 462
scalar DatabaseNetwork.user[102] totalReads 408
scalar DatabaseNetwork.user[102] totalWrites 54
scalar DatabaseNetwork.user[102] averageWaitTime 0.10058007156991
scalar DatabaseNetwork.user[102] accessesPerSecond 0.0462
par DatabaseNetwork.user[103] typename "\"progetto.User\""
par DatabaseNetwork.user[103] userId 103
par DatabaseNetwork.user[103] lambda 0.05
par DatabaseNetwork.user[103] readProbability 0.9
par DatabaseNetwork.user[103] numTables 20
par DatabaseNetwork.user[103] tableDistribution "\"lognormal\""
par DatabaseNetwork.user[103] serviceTime 0.1s
attr unit s
par DatabaseNetwork.user[103] lognormalM 1.5
par DatabaseNetwork.user[103] lognormalS 1
scalar DatabaseNetwork.user[103] totalAccesses 453
scalar DatabaseNetwork.user[103] totalReads 404
scalar DatabaseNetwork.user[103] totalWrites 49
scalar DatabaseNetwork.user[103] averageWaitTime 0.10014893278473
scalar DatabaseNetwork.user[103] accessesPerSecond 0.0453
par DatabaseNetwork.user[104] typename "\"progetto.User\""
par DatabaseNetwork.user[104] userId 104
par DatabaseNetwork.user[104] lambda 0.05
par DatabaseNetwork.user[104] readProbability 0.9
par DatabaseNetwork.user[104] numTables 20
par DatabaseNetwork.user[104] tableDistribution "\"lognormal\""
par DatabaseNetwork.user[104] serviceTime 0.1s
attr unit s
par DatabaseNetwork.user[104] lognormalM 1.5
par DatabaseNetwork.user[104] lognormalS 1
scalar DatabaseNetwork.user[104] totalAccesses 483
scalar DatabaseNetwork.user[104] totalReads 425
scalar DatabaseNetwork.user[104] totalWrites 58
scalar DatabaseNetwork.user[104] averageWaitTime 0.1004426320677
scalar DatabaseNetwork.user[104] accessesPerSecond 0.0483
par DatabaseNetwork.user[105] typename "\"progetto.User\""
par DatabaseNetwork.user[105] userId 105
par DatabaseNetwork.user[105] lambda 0.05
par DatabaseNetwork.user[105] readProbability 0.9
par DatabaseNetwork.user[105] numTables 20
par DatabaseNetwork.user[105] tableDistribution "\"lognormal\""
par DatabaseNetwork.user[105] serviceTime 0.1s
attr unit s
par DatabaseNetwork.user[105] lognormalM 1.5
par DatabaseNetwork.user[105] lognormalS 1
scalar DatabaseNetwork.user[105] totalAccesses 491
scalar DatabaseNetwork.user[105] totalReads 449
scalar DatabaseNetwork.user[105] totalWrites 42
scalar DatabaseNetwork.user[105] averageWaitTime 0.10059256537014
scalar DatabaseNetwork.user[105] accessesPerSecond 0.0491
par DatabaseNetwork.user[106] typename "\"progetto.User\""
par DatabaseNetwork.user[106] userId 106
par DatabaseNetwork.user[106] lambda 0.05
par DatabaseNetwork.user[106] readProbability 0.9
par DatabaseNetwork.user[106] numTables 20
par DatabaseNetwork.user[106] tableDistribution "\"lognormal\""
par DatabaseNetwork.user[106] serviceTime 0.1s
attr unit s
par DatabaseNetwork.user[106] lognormalM 1.5
par DatabaseNetwork.user[106] lognormalS 1
scalar DatabaseNetwork.user[106] totalAccesses 489
scalar DatabaseNetwork.user[106] totalReads 450
scalar DatabaseNetwork.user[106] totalWrites 39
scalar DatabaseNetwork.user[106] averageWaitTime 0.10076133514565
scalar DatabaseNetwork.user[106] accessesPerSecond 0.0489
par DatabaseNetwork.user[107] typename "\"progetto.User\""
par DatabaseNetwork.user[107] userId 107
par DatabaseNetwork.user[107] lambda 0.05
par DatabaseNetwork.user[107] readProbability 0.9
par DatabaseNetwork.user[107] numTables 20
par DatabaseNetwork.user[107] tableDistribution "\"lognormal\""
par DatabaseNetwork.user[107] serviceTime 0.1s
attr unit s
par DatabaseNetwork.user[107] lognormalM 1.5
par DatabaseNetwork.user[107] lognormalS 1
scalar DatabaseNetwork.user[107] totalAccesses 512
scalar DatabaseNetwork.user[107] totalReads 466
scalar DatabaseNetwork.user[107] totalWrites 46
scalar DatabaseNetwork.user[107] averageWaitTime 0.10013656378597
scalar DatabaseNetwork.user[107] accessesPerSecond 0.0512
par DatabaseNetwork.user[108] typename "\"progetto.User\""
par DatabaseNetwork.user[108] userId 108
par DatabaseNetwork.user[108] lambda 0.05
par DatabaseNetwork.user[108] readProbability 0.9
par DatabaseNetwork.user[108] numTables 20
par DatabaseNetwork.user[108] tableDistribution "\"lognormal\""
par DatabaseNetwork.user[108] serviceTime 0.1s
attr unit s
par DatabaseNetwork.user[108] lognormalM 1.5
par DatabaseNetwork.user[108] lognormalS 1
scalar DatabaseNetwork.user[108] totalAccesses 473
scalar DatabaseNetwork.user[108] totalReads 432
scalar DatabaseNetwork.user[108] totalWrites 41
scalar DatabaseNetwork.user[108] averageWaitTime 0.10055284291372
scalar DatabaseNetwork.user[108] accessesPerSecond 0.0473
par DatabaseNetwork.user[109] typename "\"progetto.User\""
par DatabaseNetwork.user[109] userId 109
par DatabaseNetwork.user[109] lambda 0.05
par DatabaseNetwork.user[109] readProbability 0.9
par DatabaseNetwork.user[109] numTables 20
par DatabaseNetwork.user[109] tableDistribution "\"lognormal\""
par DatabaseNetwork.user[109] serviceTime 0.1s
attr unit s
par DatabaseNetwork.user[109] lognormalM 1.5
par DatabaseNetwork.user[109] lognormalS 1
scalar DatabaseNetwork.user[109] totalAccesses 448
scalar DatabaseNetwork.user[109] totalReads 398
scalar DatabaseNetwork.user[109] totalWrites 50
scalar DatabaseNetwork.user[109] averageWaitTime 0.10046662811777
scalar DatabaseNetwork.user[109] accessesPerSecond 0.0448
par DatabaseNetwork.user[110] typename "\"progetto.User\""
par DatabaseNetwork.user[110] userId 110
par DatabaseNetwork.user[110] lambda 0.05
par DatabaseNetwork.user[110] readProbability 0.9
par DatabaseNetwork.user[110] numTables 20
par DatabaseNetwork.user[110] tableDistribution "\"lognormal\""
par DatabaseNetwork.user[110] serviceTime 0.1s
attr unit s
par DatabaseNetwork.user[110] lognormalM 1.5
par DatabaseNetwork.user[110] lognormalS 1
scalar DatabaseNetwork.user[110] totalAccesses 495
scalar DatabaseNetwork.user[110] totalReads 447
scalar DatabaseNetwork.user[110] totalWrites 48
scalar DatabaseNetwork.user[110] averageWaitTime 0.10014362915114
scalar DatabaseNetwork.user[110] accessesPerSecond 0.0495
par DatabaseNetwork.user[111] typename "\"progetto.User\""
par DatabaseNetwork.user[111] userId 111
par DatabaseNetwork.user[111] lambda 0.05
par DatabaseNetwork.user[111] readProbability 0.9
par DatabaseNetwork.user[111] numTables 20
par DatabaseNetwork.user[111] tableDistribution "\"lognormal\""
par DatabaseNetwork.user[111] serviceTime 0.1s
attr unit s
par DatabaseNetwork.user[111] lognormalM 1.5
par DatabaseNetwork.user[111] lognormalS 1
scalar DatabaseNetwork.user[111] totalAccesses 510
scalar DatabaseNetwork.user[111] totalReads 448
scalar DatabaseNetwork.user[111] totalWrites 62
scalar DatabaseNetwork.user[111] averageWaitTime 0.10068951040385
scalar DatabaseNetwork.user[111] accessesPerSecond 0.051
par DatabaseNetwork.user[112] typename "\"progetto.User\""
par DatabaseNetwork.user[112] userId 112
par DatabaseNetwork.user[112] lambda 0.05
[...]
par DatabaseNetwork.user[138] serviceTime 0.1s
attr unit s
par DatabaseNetwork.user[138] lognormalM 1.5
par DatabaseNetwork.user[138] lognormalS 1
scalar DatabaseNetwork.user[138] totalAccesses 557
scalar DatabaseNetwork.user[138] totalReads 512
scalar DatabaseNetwork.user[138] totalWrites 45
scalar DatabaseNetwork.user[138] averageWaitTime 0.10067383095537
scalar DatabaseNetwork.user[138] accessesPerSecond 0.0557
par DatabaseNetwork.user[139] typename "\"progetto.User\""
par DatabaseNetwork.user[139] userId 139
par DatabaseNetwork.user[139] lambda 0.05
par DatabaseNetwork.user[139] readProbability 0.9
par DatabaseNetwork.user[139] numTables 20
par DatabaseNetwork.user[139] tableDistribution "\"lognormal\""
par DatabaseNetwork.user[139] serviceTime 0.1s
attr unit s
par DatabaseNetwork.user[139] lognormalM 1.5
par DatabaseNetwork.user[139] lognormalS 1
scalar DatabaseNetwork.user[139] totalAccesses 495
scalar DatabaseNetwork.user[139] totalReads 448
scalar DatabaseNetwork.user[139] totalWrites 47
scalar DatabaseNetwork.user[139] averageWaitTime 0.10064873697158
scalar DatabaseNetwork.user[139] accessesPerSecond 0.0495
par DatabaseNetwork.user[140] typename "\"progetto.User\""
par DatabaseNetwork.user[140] userId 140
par DatabaseNetwork.user[140] lambda 0.05
par DatabaseNetwork.user[140] readProbability 0.9
par DatabaseNetwork.user[140] numTables 20
par DatabaseNetwork.user[140] tableDistribution "\"lognormal\""
par DatabaseNetwork.user[140] serviceTime 0.1s
attr unit s
par DatabaseNetwork.user[140] lognormalM 1.5
par DatabaseNetwork.user[140] lognormalS 1
scalar DatabaseNetwork.user[140] totalAccesses 527
scalar DatabaseNetwork.user[140] totalReads 471
scalar DatabaseNetwork.user[140] totalWrites 56
scalar DatabaseNetwork.user[140] averageWaitTime 0.10038387367772
scalar DatabaseNetwork.user[140] accessesPerSecond 0.0527
par DatabaseNetwork.user[141] typename "\"progetto.User\""
par DatabaseNetwork.user[141] userId 141
par DatabaseNetwork.user[141] lambda 0.05
par DatabaseNetwork.user[141] readProbability 0.9
par DatabaseNetwork.user[141] numTables 20
par DatabaseNetwork.user[141] tableDistribution "\"lognormal\""
par DatabaseNetwork.user[141] serviceTime 0.1s
attr unit s
par DatabaseNetwork.user[141] lognormalM 1.5
par DatabaseNetwork.user[141] lognormalS 1
scalar DatabaseNetwork.user[141] totalAccesses 495
scalar DatabaseNetwork.user[141] totalReads 444
scalar DatabaseNetwork.user[141] totalWrites 51
scalar DatabaseNetwork.user[141] averageWaitTime 0.10080204354286
scalar DatabaseNetwork.user[141] accessesPerSecond 0.0495
par DatabaseNetwork.user[142] typename "\"progetto.User\""
par DatabaseNetwork.user[142] userId 142
par DatabaseNetwork.user[142] lambda 0.05
par DatabaseNetwork.user[142] readProbability 0.9
par DatabaseNetwork.user[142] numTables 20
par DatabaseNetwork.user[142] tableDistribution "\"lognormal\""
par DatabaseNetwork.user[142] serviceTime 0.1s
attr unit s
par DatabaseNetwork.user[142] lognormalM 1.5
par DatabaseNetwork.user[142] lognormalS 1
scalar DatabaseNetwork.user[142] totalAccesses 464
scalar DatabaseNetwork.user[142] totalReads 417
scalar DatabaseNetwork.user[142] totalWrites 47
scalar DatabaseNetwork.user[142] averageWaitTime 0.1002397205352
scalar DatabaseNetwork.user[142] accessesPerSecond 0.0464
par DatabaseNetwork.user[143] typename "\"progetto.User\""
par DatabaseNetwork.user[143] userId 143
par DatabaseNetwork.user[143] lambda 0.05
par DatabaseNetwork.user[143] readProbability 0.9
par DatabaseNetwork.user[143] numTables 20
par DatabaseNetwork.user[143] tableDistribution "\"lognormal\""
par DatabaseNetwork.user[143] serviceTime 0.1s
attr unit s
par DatabaseNetwork.user[143] lognormalM 1.5
par DatabaseNetwork.user[143] lognormalS 1
scalar DatabaseNetwork.user[143] totalAccesses 495
scalar DatabaseNetwork.user[143] totalReads 437
scalar DatabaseNetwork.user[143] totalWrites 58
scalar DatabaseNetwork.user[143] averageWaitTime 0.10077136751853
scalar DatabaseNetwork.user[143] accessesPerSecond 0.0495
par DatabaseNetwork.user[144] typename "\"progetto.User\""
par DatabaseNetwork.user[144] userId 144
par DatabaseNetwork.user[144] lambda 0.05
par DatabaseNetwork.user[144] readProbability 0.9
par DatabaseNetwork.user[144] numTables 20
par DatabaseNetwork.user[144] tableDistribution "\"lognormal\""
par DatabaseNetwork.user[144] serviceTime 0.1s
attr unit s
par DatabaseNetwork.user[144] lognormalM 1.5
par DatabaseNetwork.user[144] lognormalS 1
scalar DatabaseNetwork.user[144] totalAccesses 535
scalar DatabaseNetwork.user[144] totalReads 482
scalar DatabaseNetwork.user[144] totalWrites 53
scalar DatabaseNetwork.user[144] averageWaitTime 0.10084701556
scalar DatabaseNetwork.user[144] accessesPerSecond 0.0535
par DatabaseNetwork.user[145] typename "\"progetto.User\""
par DatabaseNetwork.user[145] userId 145
par DatabaseNetwork.user[145] lambda 0.05
par DatabaseNetwork.user[145] readProbability 0.9
par DatabaseNetwork.user[145] numTables 20
par DatabaseNetwork.user[145] tableDistribution "\"lognormal\""
par DatabaseNetwork.user[145] serviceTime 0.1s
attr unit s
par DatabaseNetwork.user[145] lognormalM 1.5
par DatabaseNetwork.user[145] lognormalS 1
scalar DatabaseNetwork.user[145] totalAccesses 479
scalar DatabaseNetwork.user[145] totalReads 419
scalar DatabaseNetwork.user[145] totalWrites 60
scalar DatabaseNetwork.user[145] averageWaitTime 0.10078552500274
scalar DatabaseNetwork.user[145] accessesPerSecond 0.0479
par DatabaseNetwork.user[146] typename "\"progetto.User\""
par DatabaseNetwork.user[146] userId 146
par DatabaseNetwork.user[146] lambda 0.05
par DatabaseNetwork.user[146] readProbability 0.9
par DatabaseNetwork.user[146] numTables 20
par DatabaseNetwork.user[146] tableDistribution "\"lognormal\""
par DatabaseNetwork.user[146] serviceTime 0.1s
attr unit s
par DatabaseNetwork.user[146] lognormalM 1.5
par DatabaseNetwork.user[146] lognormalS 1
scalar DatabaseNetwork.user[146] totalAccesses 532
scalar DatabaseNetwork.user[146] totalReads 482
scalar DatabaseNetwork.user[146] totalWrites 50
scalar DatabaseNetwork.user[146] averageWaitTime 0.1001759812393
scalar DatabaseNetwork.user[146] accessesPerSecond 0.0532
par DatabaseNetwork.user[147] typename "\"progetto.User\""
par DatabaseNetwork.user[147] userId 147
par DatabaseNetwork.user[147] lambda 0.05
par DatabaseNetwork.user[147] readProbability 0.9
par DatabaseNetwork.user[147] numTables 20
par DatabaseNetwork.user[147] tableDistribution "\"lognormal\""
par DatabaseNetwork.user[147] serviceTime 0.1s
attr unit s
par DatabaseNetwork.user[147] lognormalM 1.5
par DatabaseNetwork.user[147] lognormalS 1
scalar DatabaseNetwork.user[147] totalAccesses 480
scalar DatabaseNetwork.user[147] totalReads 434
scalar DatabaseNetwork.user[147] totalWrites 46
scalar DatabaseNetwork.user[147] averageWaitTime 0.10061308937051
scalar DatabaseNetwork.user[147] accessesPerSecond 0.048
par DatabaseNetwork.user[148] typename "\"progetto.User\""
par DatabaseNetwork.user[148] userId 148
par DatabaseNetwork.user[148] lambda 0.05
par DatabaseNetwork.user[148] readProbability 0.9
par DatabaseNetwork.user[148] numTables 20
par DatabaseNetwork.user[148] tableDistribution "\"lognormal\""
par DatabaseNetwork.user[148] serviceTime 0.1s
attr unit s
par DatabaseNetwork.user[148] lognormalM 1.5
par DatabaseNetwork.user[148] lognormalS 1
scalar DatabaseNetwork.user[148] totalAccesses 495
scalar DatabaseNetwork.user[148] totalReads 445
scalar DatabaseNetwork.user[148] totalWrites 50
scalar DatabaseNetwork.user[148] averageWaitTime 0.10087759064648
scalar DatabaseNetwork.user[148] accessesPerSecond 0.0495
par DatabaseNetwork.user[149] typename "\"progetto.User\""
par DatabaseNetwork.user[149] userId 149
par DatabaseNetwork.user[149] lambda 0.05
par DatabaseNetwork.user[149] readProbability 0.9
par DatabaseNetwork.user[149] numTables 20
par DatabaseNetwork.user[149] tableDistribution "\"lognormal\""
par DatabaseNetwork.user[149] serviceTime 0.1s
attr unit s
par DatabaseNetwork.user[149] lognormalM 1.5
par DatabaseNetwork.user[149] lognormalS 1
scalar DatabaseNetwork.user[149] totalAccesses 502
scalar DatabaseNetwork.user[149] totalReads 458
scalar DatabaseNetwork.user[149] totalWrites 44
scalar DatabaseNetwork.user[149] averageWaitTime 0.1004279015908
scalar DatabaseNetwork.user[149] accessesPerSecond 0.0502
par DatabaseNetwork.table[0] typename "\"progetto.Table\""
par DatabaseNetwork.table[0] tableId 0
scalar DatabaseNetwork.table[0] table.totalServed 5604
scalar DatabaseNetwork.table[0] table.totalReads 5039
scalar DatabaseNetwork.table[0] table.totalWrites 565
scalar DatabaseNetwork.table[0] table.throughput 0.5604
scalar DatabaseNetwork.table[0] table.maxQueueLength 2
scalar DatabaseNetwork.table[0] table.avgQueueLength 1.0003568879372
scalar DatabaseNetwork.table[0] table.avgWaitingTime 0.00047889603722261
scalar DatabaseNetwork.table[0] table.utilization 0.054782214210709
par DatabaseNetwork.table[1] typename "\"progetto.Table\""
par DatabaseNetwork.table[1] tableId 1
scalar DatabaseNetwork.table[1] table.totalServed 11132
scalar DatabaseNetwork.table[1] table.totalReads 10041
scalar DatabaseNetwork.table[1] table.totalWrites 1091
scalar DatabaseNetwork.table[1] table.throughput 1.1132
scalar DatabaseNetwork.table[1] table.maxQueueLength 2
scalar DatabaseNetwork.table[1] table.avgQueueLength 1.0009881422925
scalar DatabaseNetwork.table[1] table.avgWaitingTime 0.0011480257535677
scalar DatabaseNetwork.table[1] table.utilization 0.10622408666829
par DatabaseNetwork.table[2] typename "\"progetto.Table\""
par DatabaseNetwork.table[2] tableId 2
scalar DatabaseNetwork.table[2] table.totalServed 10407
scalar DatabaseNetwork.table[2] table.totalReads 9403
scalar DatabaseNetwork.table[2] table.totalWrites 1004
scalar DatabaseNetwork.table[2] table.throughput 1.0407
scalar DatabaseNetwork.table[2] table.maxQueueLength 2
scalar DatabaseNetwork.table[2] table.avgQueueLength 1.0012491592198
scalar DatabaseNetwork.table[2] table.avgWaitingTime 0.0010292469141228
scalar DatabaseNetwork.table[2] table.utilization 0.099751555907229
par DatabaseNetwork.table[3] typename "\"progetto.Table\""
par DatabaseNetwork.table[3] tableId 3
scalar DatabaseNetwork.table[3] table.totalServed 8639
scalar DatabaseNetwork.table[3] table.totalReads 7780
scalar DatabaseNetwork.table[3] table.totalWrites 859
scalar DatabaseNetwork.table[3] table.throughput 0.8639
scalar DatabaseNetwork.table[3] table.maxQueueLength 2
scalar DatabaseNetwork.table[3] table.avgQueueLength 1.0011574074074
scalar DatabaseNetwork.table[3] table.avgWaitingTime 0.00092199976677847
scalar DatabaseNetwork.table[3] table.utilization 0.083518549009284
par DatabaseNetwork.table[4] typename "\"progetto.Table\""
par DatabaseNetwork.table[4] tableId 4
scalar DatabaseNetwork.table[4] table.totalServed 7055
scalar DatabaseNetwork.table[4] table.totalReads 6334
scalar DatabaseNetwork.table[4] table.totalWrites 721
scalar DatabaseNetwork.table[4] table.throughput 0.7055
scalar DatabaseNetwork.table[4] table.maxQueueLength 3
scalar DatabaseNetwork.table[4] table.avgQueueLength 1.0007087172218
scalar DatabaseNetwork.table[4] table.avgWaitingTime 0.00080462787421544
scalar DatabaseNetwork.table[4] table.utilization 0.068582060107189
par DatabaseNetwork.table[5] typename "\"progetto.Table\""
par DatabaseNetwork.table[5] tableId 5
scalar DatabaseNetwork.table[5] table.totalServed 5870
scalar DatabaseNetwork.table[5] table.totalReads 5289
scalar DatabaseNetwork.table[5] table.totalWrites 581
scalar DatabaseNetwork.table[5] table.throughput 0.587
scalar DatabaseNetwork.table[5] table.maxQueueLength 2
scalar DatabaseNetwork.table[5] table.avgQueueLength 1.0005110732538
scalar DatabaseNetwork.table[5] table.avgWaitingTime 0.00073119243797823
scalar DatabaseNetwork.table[5] table.utilization 0.057414118606821
par DatabaseNetwork.table[6] typename "\"progetto.Table\""
par DatabaseNetwork.table[6] tableId 6
scalar DatabaseNetwork.table[6] table.totalServed 4617
scalar DatabaseNetwork.table[6] table.totalReads 4158
scalar DatabaseNetwork.table[6] table.totalWrites 459
scalar DatabaseNetwork.table[6] table.throughput 0.4617
scalar DatabaseNetwork.table[6] table.maxQueueLength 2
scalar DatabaseNetwork.table[6] table.avgQueueLength 1.0004331817197
scalar DatabaseNetwork.table[6] table.avgWaitingTime 0.00042835151745937
scalar DatabaseNetwork.table[6] table.utilization 0.045319789997473
par DatabaseNetwork.table[7] typename "\"progetto.Table\""
par DatabaseNetwork.table[7] tableId 7
scalar DatabaseNetwork.table[7] table.totalServed 3671
scalar DatabaseNetwork.table[7] table.totalReads 3332
scalar DatabaseNetwork.table[7] table.totalWrites 339
scalar DatabaseNetwork.table[7] table.throughput 0.3671
scalar DatabaseNetwork.table[7] table.maxQueueLength 1
scalar DatabaseNetwork.table[7] table.avgQueueLength 1
scalar DatabaseNetwork.table[7] table.avgWaitingTime 0.00029455067330802
scalar DatabaseNetwork.table[7] table.utilization 0.036089505176162
par DatabaseNetwork.table[8] typename "\"progetto.Table\""
par DatabaseNetwork.table[8] tableId 8
scalar DatabaseNetwork.table[8] table.totalServed 3131
scalar DatabaseNetwork.table[8] table.totalReads 2834
scalar DatabaseNetwork.table[8] table.totalWrites 297
scalar DatabaseNetwork.table[8] table.throughput 0.3131
scalar DatabaseNetwork.table[8] table.maxQueueLength 1
scalar DatabaseNetwork.table[8] table.avgQueueLength 1
scalar DatabaseNetwork.table[8] table.avgWaitingTime 0.00023964779526144
scalar DatabaseNetwork.table[8] table.utilization 0.030915065453497
par DatabaseNetwork.table[9] typename "\"progetto.Table\""
par DatabaseNetwork.table[9] tableId 9
scalar DatabaseNetwork.table[9] table.totalServed 2622
scalar DatabaseNetwork.table[9] table.totalReads 2338
scalar DatabaseNetwork.table[9] table.totalWrites 284
scalar DatabaseNetwork.table[9] table.throughput 0.2622
scalar DatabaseNetwork.table[9] table.maxQueueLength 1
scalar DatabaseNetwork.table[9] table.avgQueueLength 1
scalar DatabaseNetwork.table[9] table.avgWaitingTime 0.00034678019064601
scalar DatabaseNetwork.table[9] table.utilization 0.02599228035274
par DatabaseNetwork.table[10] typename "\"progetto.Table\""
par DatabaseNetwork.table[10] tableId 10
scalar DatabaseNetwork.table[10] table.totalServed 2107
scalar DatabaseNetwork.table[10] table.totalReads 1903
scalar DatabaseNetwork.table[10] table.totalWrites 204
scalar DatabaseNetwork.table[10] table.throughput 0.2107
scalar DatabaseNetwork.table[10] table.maxQueueLength 1
scalar DatabaseNetwork.table[10] table.avgQueueLength 1
scalar DatabaseNetwork.table[10] table.avgWaitingTime 0.00018691903686263
scalar DatabaseNetwork.table[10] table.utilization 0.020937510160021
par DatabaseNetwork.table[11] typename "\"progetto.Table\""
par DatabaseNetwork.table[11] tableId 11
scalar DatabaseNetwork.table[11] table.totalServed 1820
scalar DatabaseNetwork.table[11] table.totalReads 1630
scalar DatabaseNetwork.table[11] table.totalWrites 190
scalar DatabaseNetwork.table[11] table.throughput 0.182
scalar DatabaseNetwork.table[11] table.maxQueueLength 1
scalar DatabaseNetwork.table[11] table.avgQueueLength 1
scalar DatabaseNetwork.table[11] table.avgWaitingTime 9.5843673454091e-05
scalar DatabaseNetwork.table[11] table.utilization 0.017979181070844
par DatabaseNetwork.table[12] typename "\"progetto.Table\""
par DatabaseNetwork.table[12] tableId 12
scalar DatabaseNetwork.table[12] table.totalServed 1595
scalar DatabaseNetwork.table[12] table.totalReads 1423
scalar DatabaseNetwork.table[12] table.totalWrites 172
scalar DatabaseNetwork.table[12] table.throughput 0.1595
scalar DatabaseNetwork.table[12] table.maxQueueLength 1
scalar DatabaseNetwork.table[12] table.avgQueueLength 1
scalar DatabaseNetwork.table[12] table.avgWaitingTime 2.8834714862783e-05
scalar DatabaseNetwork.table[12] table.utilization 0.015868809404786
par DatabaseNetwork.table[13] typename "\"progetto.Table\""
par DatabaseNetwork.table[13] tableId 13
scalar DatabaseNetwork.table[13] table.totalServed 1335
scalar DatabaseNetwork.table[13] table.totalReads 1217
scalar DatabaseNetwork.table[13] table.totalWrites 118
scalar DatabaseNetwork.table[13] table.throughput 0.1335
scalar DatabaseNetwork.table[13] table.maxQueueLength 1
scalar DatabaseNetwork.table[13] table.avgQueueLength 1
scalar DatabaseNetwork.table[13] table.avgWaitingTime 6.8705412480035e-05
scalar DatabaseNetwork.table[13] table.utilization 0.013273865884073
par DatabaseNetwork.table[14] typename "\"progetto.Table\""
par DatabaseNetwork.table[14] tableId 14
scalar DatabaseNetwork.table[14] table.totalServed 1241
scalar DatabaseNetwork.table[14] table.totalReads 1111
scalar DatabaseNetwork.table[14] table.totalWrites 130
scalar DatabaseNetwork.table[14] table.throughput 0.1241
scalar DatabaseNetwork.table[14] table.maxQueueLength 1
scalar DatabaseNetwork.table[14] table.avgQueueLength 1
scalar DatabaseNetwork.table[14] table.avgWaitingTime 0.00012561160785831
scalar DatabaseNetwork.table[14] table.utilization 0.012318960231502
par DatabaseNetwork.table[15] typename "\"progetto.Table\""
par DatabaseNetwork.table[15] tableId 15
scalar DatabaseNetwork.table[15] table.totalServed 1024
scalar DatabaseNetwork.table[15] table.totalReads 904
scalar DatabaseNetwork.table[15] table.totalWrites 120
scalar DatabaseNetwork.table[15] table.throughput 0.1024
scalar DatabaseNetwork.table[15] table.maxQueueLength 1
scalar DatabaseNetwork.table[15] table.avgQueueLength 1
scalar DatabaseNetwork.table[15] table.avgWaitingTime 5.0375355698407e-05
scalar DatabaseNetwork.table[15] table.utilization 0.01021305786597
par DatabaseNetwork.table[16] typename "\"progetto.Table\""
par DatabaseNetwork.table[16] tableId 16
scalar DatabaseNetwork.table[16] table.totalServed 819
scalar DatabaseNetwork.table[16] table.totalReads 748
scalar DatabaseNetwork.table[16] table.totalWrites 71
scalar DatabaseNetwork.table[16] table.throughput 0.0819
scalar DatabaseNetwork.table[16] table.maxQueueLength 1
scalar DatabaseNetwork.table[16] table.avgQueueLength 1
scalar DatabaseNetwork.table[16] table.avgWaitingTime 7.3794771616611e-05
scalar DatabaseNetwork.table[16] table.utilization 0.0081625729559212
par DatabaseNetwork.table[17] typename "\"progetto.Table\""
par DatabaseNetwork.table[17] tableId 17
scalar DatabaseNetwork.table[17] table.totalServed 826
scalar DatabaseNetwork.table[17] table.totalReads 744
scalar DatabaseNetwork.table[17] table.totalWrites 82
scalar DatabaseNetwork.table[17] table.throughput 0.0826
scalar DatabaseNetwork.table[17] table.maxQueueLength 1
scalar DatabaseNetwork.table[17] table.avgQueueLength 1
scalar DatabaseNetwork.table[17] table.avgWaitingTime 0.0002295421647358
scalar DatabaseNetwork.table[17] table.utilization 0.0082360914926709
par DatabaseNetwork.table[18] typename "\"progetto.Table\""
par DatabaseNetwork.table[18] tableId 18
scalar DatabaseNetwork.table[18] table.totalServed 690
scalar DatabaseNetwork.table[18] table.totalReads 623
scalar DatabaseNetwork.table[18] table.totalWrites 67
scalar DatabaseNetwork.table[18] table.throughput 0.069
scalar DatabaseNetwork.table[18] table.maxQueueLength 1
scalar DatabaseNetwork.table[18] table.avgQueueLength 1
scalar DatabaseNetwork.table[18] table.avgWaitingTime 0
scalar DatabaseNetwork.table[18] table.utilization 0.0068923245682205
par DatabaseNetwork.table[19] typename "\"progetto.Table\""
par DatabaseNetwork.table[19] tableId 19
scalar DatabaseNetwork.table[19] table.totalServed 607
scalar DatabaseNetwork.table[19] table.totalReads 546
scalar DatabaseNetwork.table[19] table.totalWrites 61
scalar DatabaseNetwork.table[19] table.throughput 0.0607
scalar DatabaseNetwork.table[19] table.maxQueueLength 1
scalar DatabaseNetwork.table[19] table.avgQueueLength 1
scalar DatabaseNetwork.table[19] table.avgWaitingTime 0.00013472041388793
scalar DatabaseNetwork.table[19] table.utilization 0.0060520372563226
par DatabaseNetwork typename "\"progetto.DatabaseNetwork\""
par DatabaseNetwork numUsers 150
par DatabaseNetwork numTables 20

