version 3
run Lognormal-101-20260105-17:15:22-28123
attr configname Lognormal
attr datetime 20260105-17:15:22
attr datetimef 20260105-171522
attr experiment Lognormal
attr inifile omnetpp.ini
attr iterationvars "$N=200, $p=0.3"
attr iterationvarsd N=200/p=0.3
attr iterationvarsf N=200,p=0.3-
attr measurement "$N=200, $p=0.3"
attr network progetto.DatabaseNetwork
attr processid 28123
attr repetition 1
attr replication #1
attr resultdir results
attr runnumber 101
attr seedset 1
itervar N 200
itervar p 0.3
config description "Lognormal distribution (hotspots) - varia N e p"
config *.user[*].tableDistribution "\"lognormal\""
config *.user[*].lognormalM 1.5
config *.user[*].lognormalS 1.0
config *.numUsers 200
config *.user[*].readProbability 0.3
config network progetto.DatabaseNetwork
config sim-time-limit 10000s
config cpu-time-limit 3600s
config repeat 5
config seed-set 1
config output-vector-file "results/Lognormal-$N=200, $p=0.3-1.vec"
config output-scalar-file "results/Lognormal-$N=200, $p=0.3-1.sca"
config result-dir results
config **.vector-recording true
config **.scalar-recording true
config *.numTables 20
config *.user[*].lambda 0.05
config *.user[*].serviceTime 0.1s

par DatabaseNetwork.user[0] typename "\"progetto.User\""
par DatabaseNetwork.user[0] userId 0
par DatabaseNetwork.user[0] lambda 0.05
par DatabaseNetwork.user[0] readProbability 0.3
par DatabaseNetwork.user[0] numTables 20
par DatabaseNetwork.user[0] tableDistribution "\"lognormal\""
par DatabaseNetwork.user[0] serviceTime 0.1s
attr unit s
par DatabaseNetwork.user[0] lognormalM 1.5
par DatabaseNetwork.user[0] lognormalS 1
scalar DatabaseNetwork.user[0] totalAccesses 466
scalar DatabaseNetwork.user[0] totalReads 128
scalar DatabaseNetwork.user[0] totalWrites 338
scalar DatabaseNetwork.user[0] averageWaitTime 0.1047296727735
scalar DatabaseNetwork.user[0] accessesPerSecond 0.0466
par DatabaseNetwork.user[1] typename "\"progetto.User\""
par DatabaseNetwork.user[1] userId 1
par DatabaseNetwork.user[1] lambda 0.05
par DatabaseNetwork.user[1] readProbability 0.3
par DatabaseNetwork.user[1] numTables 20
par DatabaseNetwork.user[1] tableDistribution "\"lognormal\""
par DatabaseNetwork.user[1] serviceTime 0.1s
attr unit s
par DatabaseNetwork.user[1] lognormalM 1.5
par DatabaseNetwork.user[1] lognormalS 1
scalar DatabaseNetwork.user[1] totalAccesses 507
scalar DatabaseNetwork.user[1] totalReads 151
scalar DatabaseNetwork.user[1] totalWrites 356
scalar DatabaseNetwork.user[1] averageWaitTime 0.10545771169407
scalar DatabaseNetwork.user[1] accessesPerSecond 0.0507
par DatabaseNetwork.user[2] typename "\"progetto.User\""
par DatabaseNetwork.user[2] userId 2
par DatabaseNetwork.user[2] lambda 0.05
par DatabaseNetwork.user[2] readProbability 0.3
par DatabaseNetwork.user[2] numTables 20
par DatabaseNetwork.user[2] tableDistribution "\"lognormal\""
par DatabaseNetwork.user[2] serviceTime 0.1s
attr unit s
par DatabaseNetwork.user[2] lognormalM 1.5
par DatabaseNetwork.user[2] lognormalS 1
scalar DatabaseNetwork.user[2] totalAccesses 450
scalar DatabaseNetwork.user[2] totalReads 121
scalar DatabaseNetwork.user[2] totalWrites 329
scalar DatabaseNetwork.user[2] averageWaitTime 0.10393130369732
scalar DatabaseNetwork.user[2] accessesPerSecond 0.045
par DatabaseNetwork.user[3] typename "\"progetto.User\""
par DatabaseNetwork.user[3] userId 3
par DatabaseNetwork.user[3] lambda 0.05
par DatabaseNetwork.user[3] readProbability 0.3
par DatabaseNetwork.user[3] numTables 20
par DatabaseNetwork.user[3] tableDistribution "\"lognormal\""
par DatabaseNetwork.user[3] serviceTime 0.1s
attr unit s
par DatabaseNetwork.user[3] lognormalM 1.5
par DatabaseNetwork.user[3] lognormalS 1
scalar DatabaseNetwork.user[3] totalAccesses 511
scalar DatabaseNetwork.user[3] totalReads 149
scalar DatabaseNetwork.user[3] totalWrites 362
scalar DatabaseNetwork.user[3] averageWaitTime 0.10391843413551
scalar DatabaseNetwork.user[3] accessesPerSecond 0.0511
par DatabaseNetwork.user[4] typename "\"progetto.User\""
par DatabaseNetwork.user[4] userId 4
par DatabaseNetwork.user[4] lambda 0.05
par DatabaseNetwork.user[4] readProbability 0.3
par DatabaseNetwork.user[4] numTables 20
par DatabaseNetwork.user[4] tableDistribution "\"lognormal\""
par DatabaseNetwork.user[4] serviceTime 0.1s
attr unit s
par DatabaseNetwork.user[4] lognormalM 1.5
par DatabaseNetwork.user[4] lognormalS 1
scalar DatabaseNetwork.user[4] totalAccesses 507
scalar DatabaseNetwork.user[4] totalReads 162
scalar DatabaseNetwork.user[4] totalWrites 345
scalar DatabaseNetwork.user[4] averageWaitTime 0.1038450047661
scalar DatabaseNetwork.user[4] accessesPerSecond 0.0507
par DatabaseNetwork.user[5] typename "\"progetto.User\""
par DatabaseNetwork.user[5] userId 5
par DatabaseNetwork.user[5] lambda 0.05
par DatabaseNetwork.user[5] readProbability 0.3
par DatabaseNetwork.user[5] numTables 20
par DatabaseNetwork.user[5] tableDistribution "\"lognormal\""
par DatabaseNetwork.user[5] serviceTime 0.1s
attr unit s
par DatabaseNetwork.user[5] lognormalM 1.5
par DatabaseNetwork.user[5] lognormalS 1
scalar DatabaseNetwork.user[5] totalAccesses 511
scalar DatabaseNetwork.user[5] totalReads 147
scalar DatabaseNetwork.user[5] totalWrites 364
scalar DatabaseNetwork.user[5] averageWaitTime 0.10527798304515
scalar DatabaseNetwork.user[5] accessesPerSecond 0.0511
par DatabaseNetwork.user[6] typename "\"progetto.User\""
par DatabaseNetwork.user[6] userId 6
par DatabaseNetwork.user[6] lambda 0.05
par DatabaseNetwork.user[6] readProbability 0.3
par DatabaseNetwork.user[6] numTables 20
par DatabaseNetwork.user[6] tableDistribution "\"lognormal\""
par DatabaseNetwork.user[6] serviceTime 0.1s
attr unit s
par DatabaseNetwork.user[6] lognormalM 1.5
par DatabaseNetwork.user[6] lognormalS 1
scalar DatabaseNetwork.user[6] totalAccesses 459
scalar DatabaseNetwork.user[6] totalReads 147
scalar DatabaseNetwork.user[6] totalWrites 312
scalar DatabaseNetwork.user[6] averageWaitTime 0.10473667212929
scalar DatabaseNetwork.user[6] accessesPerSecond 0.0459
par DatabaseNetwork.user[7] typename "\"progetto.User\""
par DatabaseNetwork.user[7] userId 7
par DatabaseNetwork.user[7] lambda 0.05
par DatabaseNetwork.user[7] readProbability 0.3
par DatabaseNetwork.user[7] numTables 20
par DatabaseNetwork.user[7] tableDistribution "\"lognormal\""
par DatabaseNetwork.user[7] serviceTime 0.1s
attr unit s
par DatabaseNetwork.user[7] lognormalM 1.5
par DatabaseNetwork.user[7] lognormalS 1
scalar DatabaseNetwork.user[7] totalAccesses 489
scalar DatabaseNetwork.user[7] totalReads 146
scalar DatabaseNetwork.user[7] totalWrites 343
scalar DatabaseNetwork.user[7] averageWaitTime 0.10378716035904
scalar DatabaseNetwork.user[7] accessesPerSecond 0.0489
par DatabaseNetwork.user[8] typename "\"progetto.User\""
par DatabaseNetwork.user[8] userId 8
par DatabaseNetwork.user[8] lambda 0.05
par DatabaseNetwork.user[8] readProbability 0.3
par DatabaseNetwork.user[8] numTables 20
par DatabaseNetwork.user[8] tableDistribution "\"lognormal\""
par DatabaseNetwork.user[8] serviceTime 0.1s
attr unit s
par DatabaseNetwork.user[8] lognormalM 1.5
par DatabaseNetwork.user[8] lognormalS 1
scalar DatabaseNetwork.user[8] totalAccesses 453
scalar DatabaseNetwork.user[8] totalReads 136
scalar DatabaseNetwork.user[8] totalWrites 317
scalar DatabaseNetwork.user[8] averageWaitTime 0.1034955069708
scalar DatabaseNetwork.user[8] accessesPerSecond 0.0453
par DatabaseNetwork.user[9] typename "\"progetto.User\""
par DatabaseNetwork.user[9] userId 9
par DatabaseNetwork.user[9] lambda 0.05
par DatabaseNetwork.user[9] readProbability 0.3
par DatabaseNetwork.user[9] numTables 20
par DatabaseNetwork.user[9] tableDistribution "\"lognormal\""
par DatabaseNetwork.user[9] serviceTime 0.1s
attr unit s
par DatabaseNetwork.user[9] lognormalM 1.5
par DatabaseNetwork.user[9] lognormalS 1
scalar DatabaseNetwork.user[9] totalAccesses 505
scalar DatabaseNetwork.user[9] totalReads 142
scalar DatabaseNetwork.user[9] totalWrites 363
scalar DatabaseNetwork.user[9] averageWaitTime 0.1052462848852
scalar DatabaseNetwork.user[9] accessesPerSecond 0.0505
par DatabaseNetwork.user[10] typename "\"progetto.User\""
par DatabaseNetwork.user[10] userId 10
par DatabaseNetwork.user[10] lambda 0.05
par DatabaseNetwork.user[10] readProbability 0.3
par DatabaseNetwork.user[10] numTables 20
par DatabaseNetwork.user[10] tableDistribution "\"lognormal\""
par DatabaseNetwork.user[10] serviceTime 0.1s
attr unit s
par DatabaseNetwork.user[10] lognormalM 1.5
par DatabaseNetwork.user[10] lognormalS 1
scalar DatabaseNetwork.user[10] totalAccesses 527
scalar DatabaseNetwork.user[10] totalReads 159
scalar DatabaseNetwork.user[10] totalWrites 368
scalar DatabaseNetwork.user[10] averageWaitTime 0.10342065027201
scalar DatabaseNetwork.user[10] accessesPerSecond 0.0527
par DatabaseNetwork.user[11] typename "\"progetto.User\""
par DatabaseNetwork.user[11] userId 11
par DatabaseNetwork.user[11] lambda 0.05
par DatabaseNetwork.user[11] readProbability 0.3
par DatabaseNetwork.user[11] numTables 20
par DatabaseNetwork.user[11] tableDistribution "\"lognormal\""
par DatabaseNetwork.user[11] serviceTime 0.1s
attr unit s
par DatabaseNetwork.user[11] lognormalM 1.5
par DatabaseNetwork.user[11] lognormalS 1
scalar DatabaseNetwork.user[11] totalAccesses 499
scalar DatabaseNetwork.user[11] totalReads 159
scalar DatabaseNetwork.user[11] totalWrites 340
scalar DatabaseNetwork.user[11] averageWaitTime 0.10354899536275
scalar DatabaseNetwork.user[11] accessesPerSecond 0.0499
par DatabaseNetwork.user[12] typename "\"progetto.User\""
par DatabaseNetwork.user[12] userId 12
par DatabaseNetwork.user[12] lambda 0.05
par DatabaseNetwork.user[12] readProbability 0.3
par DatabaseNetwork.user[12] numTables 20
par DatabaseNetwork.user[12] tableDistribution "\"lognormal\""
par DatabaseNetwork.user[12] serviceTime 0.1s
attr unit s
par DatabaseNetwork.user[12] lognormalM 1.5
par DatabaseNetwork.user[12] lognormalS 1
scalar DatabaseNetwork.user[12] totalAccesses 517
scalar DatabaseNetwork.user[12] totalReads 164
scalar DatabaseNetwork.user[12] totalWrites 353
scalar DatabaseNetwork.user[12] averageWaitTime 0.1031911715759
scalar DatabaseNetwork.user[12] accessesPerSecond 0.0517
par DatabaseNetwork.user[13] typename "\"progetto.User\""
par DatabaseNetwork.user[13] userId 13
par DatabaseNetwork.user[13] lambda 0.05
par DatabaseNetwork.user[13] readProbability 0.3
par DatabaseNetwork.user[13] numTables 20
par DatabaseNetwork.user[13] tableDistribution "\"lognormal\""
par DatabaseNetwork.user[13] serviceTime 0.1s
attr unit s
par DatabaseNetwork.user[13] lognormalM 1.5
par DatabaseNetwork.user[13] lognormalS 1
scalar DatabaseNetwork.user[13] totalAccesses 470
scalar DatabaseNetwork.user[13] totalReads 140
scalar DatabaseNetwork.user[13] totalWrites 330
scalar DatabaseNetwork.user[13] averageWaitTime 0.10450573442987
scalar DatabaseNetwork.user[13] accessesPerSecond 0.047
par DatabaseNetwork.user[14] typename "\"progetto.User\""
par DatabaseNetwork.user[14] userId 14
par DatabaseNetwork.user[14] lambda 0.05
par DatabaseNetwork.user[14] readProbability 0.3
par DatabaseNetwork.user[14] numTables 20
par DatabaseNetwork.user[14] tableDistribution "\"lognormal\""
par DatabaseNetwork.user[14] serviceTime 0.1s
attr unit s
par DatabaseNetwork.user[14] lognormalM 1.5
par DatabaseNetwork.user[14] lognormalS 1
scalar DatabaseNetwork.user[14] totalAccesses 479
scalar DatabaseNetwork.user[14] totalReads 130
scalar DatabaseNetwork.user[14] totalWrites 349
scalar DatabaseNetwork.user[14] averageWaitTime 0.10515148387333
scalar DatabaseNetwork.user[14] accessesPerSecond 0.0479
par DatabaseNetwork.user[15] typename "\"progetto.User\""
par DatabaseNetwork.user[15] userId 15
par DatabaseNetwork.user[15] lambda 0.05
par DatabaseNetwork.user[15] readProbability 0.3
par DatabaseNetwork.user[15] numTables 20
par DatabaseNetwork.user[15] tableDistribution "\"lognormal\""
par DatabaseNetwork.user[15] serviceTime 0.1s
attr unit s
par DatabaseNetwork.user[15] lognormalM 1.5
par DatabaseNetwork.user[15] lognormalS 1
scalar DatabaseNetwork.user[15] totalAccesses 486
scalar DatabaseNetwork.user[15] totalReads 146
scalar DatabaseNetwork.user[15] totalWrites 340
scalar DatabaseNetwork.user[15] averageWaitTime 0.10403187904608
scalar DatabaseNetwork.user[15] accessesPerSecond 0.0486
par DatabaseNetwork.user[16] typename "\"progetto.User\""
par DatabaseNetwork.user[16] userId 16
par DatabaseNetwork.user[16] lambda 0.05
par DatabaseNetwork.user[16] readProbability 0.3
par DatabaseNetwork.user[16] numTables 20
par DatabaseNetwork.user[16] tableDistribution "\"lognormal\""
par DatabaseNetwork.user[16] serviceTime 0.1s
attr unit s
par DatabaseNetwork.user[16] lognormalM 1.5
par DatabaseNetwork.user[16] lognormalS 1
scalar DatabaseNetwork.user[16] totalAccesses 509
scalar DatabaseNetwork.user[16] totalReads 162
scalar DatabaseNetwork.user[16] totalWrites 347
scalar DatabaseNetwork.user[16] averageWaitTime 0.1052012161589
scalar DatabaseNetwork.user[16] accessesPerSecond 0.0509
par DatabaseNetwork.user[17] typename "\"progetto.User\""
par DatabaseNetwork.user[17] userId 17
par DatabaseNetwork.user[17] lambda 0.05
par DatabaseNetwork.user[17] readProbability 0.3
par DatabaseNetwork.user[17] numTables 20
par DatabaseNetwork.user[17] tableDistribution "\"lognormal\""
par DatabaseNetwork.user[17] serviceTime 0.1s
attr unit s
par DatabaseNetwork.user[17] lognormalM 1.5
par DatabaseNetwork.user[17] lognormalS 1
scalar DatabaseNetwork.user[17] totalAccesses 498
scalar DatabaseNetwork.user[17] totalReads 150
scalar DatabaseNetwork.user[17] totalWrites 348
scalar DatabaseNetwork.user[17] averageWaitTime 0.10498170665386
scalar DatabaseNetwork.user[17] accessesPerSecond 0.0498
par DatabaseNetwork.user[18] typename "\"progetto.User\""
par DatabaseNetwork.user[18] userId 18
par DatabaseNetwork.user[18] lambda 0.05
par DatabaseNetwork.user[18] readProbability 0.3
par DatabaseNetwork.user[18] numTables 20
par DatabaseNetwork.user[18] tableDistribution "\"lognormal\""
par DatabaseNetwork.user[18] serviceTime 0.1s
attr unit s
par DatabaseNetwork.user[18] lognormalM 1.5
par DatabaseNetwork.user[18] lognormalS 1
scalar DatabaseNetwork.user[18] totalAccesses 483
scalar DatabaseNetwork.user[18] totalReads 152
scalar DatabaseNetwork.user[18] totalWrites 331
scalar DatabaseNetwork.user[18] averageWaitTime 0.10464332321391
scalar DatabaseNetwork.user[18] accessesPerSecond 0.0483
par DatabaseNetwork.user[19] typename "\"progetto.User\""
par DatabaseNetwork.user[19] userId 19
par DatabaseNetwork.user[19] lambda 0.05
par DatabaseNetwork.user[19] readProbability 0.3
par DatabaseNetwork.user[19] numTables 20
par DatabaseNetwork.user[19] tableDistribution "\"lognormal\""
par DatabaseNetwork.user[19] serviceTime 0.1s
attr unit s
par DatabaseNetwork.user[19] lognormalM 1.5
par DatabaseNetwork.user[19] lognormalS 1
scalar DatabaseNetwork.user[19] totalAccesses 493
scalar DatabaseNetwork.user[19] totalReads 140
scalar DatabaseNetwork.user[19] totalWrites 353
scalar DatabaseNetwork.user[19] averageWaitTime 0.10400642198064
scalar DatabaseNetwork.user[19] accessesPerSecond 0.0493
par DatabaseNetwork.user[20] typename "\"progetto.User\""
par DatabaseNetwork.user[20] userId 20
par DatabaseNetwork.user[20] lambda 0.05
par DatabaseNetwork.user[20] readProbability 0.3
par DatabaseNetwork.user[20] numTables 20
par DatabaseNetwork.user[20] tableDistribution "\"lognormal\""
par DatabaseNetwork.user[20] serviceTime 0.1s
attr unit s
par DatabaseNetwork.user[20] lognormalM 1.5
par DatabaseNetwork.user[20] lognormalS 1
scalar DatabaseNetwork.user[20] totalAccesses 468
scalar DatabaseNetwork.user[20] totalReads 149
scalar DatabaseNetwork.user[20] totalWrites 319
scalar DatabaseNetwork.user[20] averageWaitTime 0.10455200487644
scalar DatabaseNetwork.user[20] accessesPerSecond 0.0468
par DatabaseNetwork.user[21] typename "\"progetto.User\""
par DatabaseNetwork.user[21] userId 21
par DatabaseNetwork.user[21] lambda 0.05
par DatabaseNetwork.user[21] readProbability 0.3
par DatabaseNetwork.user[21] numTables 20
par DatabaseNetwork.user[21] tableDistribution "\"lognormal\""
par DatabaseNetwork.user[21] serviceTime 0.1s
attr unit s
par DatabaseNetwork.user[21] lognormalM 1.5
par DatabaseNetwork.user[21] lognormalS 1
scalar DatabaseNetwork.user[21] totalAccesses 513
scalar DatabaseNetwork.user[21] totalReads 155
scalar DatabaseNetwork.user[21] totalWrites 358
scalar DatabaseNetwork.user[21] averageWaitTime 0.10345660036575
scalar DatabaseNetwork.user[21] accessesPerSecond 0.0513
par DatabaseNetwork.user[22] typename "\"progetto.User\""
par DatabaseNetwork.user[22] userId 22
par DatabaseNetwork.user[22] lambda 0.05
par DatabaseNetwork.user[22] readProbability 0.3
par DatabaseNetwork.user[22] numTables 20
par DatabaseNetwork.user[22] tableDistribution "\"lognormal\""
par DatabaseNetwork.user[22] serviceTime 0.1s
attr unit s
par DatabaseNetwork.user[22] lognormalM 1.5
par DatabaseNetwork.user[22] lognormalS 1
scalar DatabaseNetwork.user[22] totalAccesses 491
scalar DatabaseNetwork.user[22] totalReads 151
scalar DatabaseNetwork.user[22] totalWrites 340
scalar DatabaseNetwork.user[22] averageWaitTime 0.10296064155426
scalar DatabaseNetwork.user[22] accessesPerSecond 0.0491
par DatabaseNetwork.user[23] typename "\"progetto.User\""
par DatabaseNetwork.user[23] userId 23
par DatabaseNetwork.user[23] lambda 0.05
par DatabaseNetwork.user[23] readProbability 0.3
par DatabaseNetwork.user[23] numTables 20
par DatabaseNetwork.user[23] tableDistribution "\"lognormal\""
par DatabaseNetwork.user[23] serviceTime 0.1s
attr unit s
par DatabaseNetwork.user[23] lognormalM 1.5
par DatabaseNetwork.user[23] lognormalS 1
scalar DatabaseNetwork.user[23] totalAccesses 492
scalar DatabaseNetwork.user[23] totalReads 147
scalar DatabaseNetwork.user[23] totalWrites 345
scalar DatabaseNetwork.user[23] averageWaitTime 0.10559342212337
scalar DatabaseNetwork.user[23] accessesPerSecond 0.0492
par DatabaseNetwork.user[24] typename "\"progetto.User\""
par DatabaseNetwork.user[24] userId 24
par DatabaseNetwork.user[24] lambda 0.05
par DatabaseNetwork.user[24] readProbability 0.3
par DatabaseNetwork.user[24] numTables 20
par DatabaseNetwork.user[24] tableDistribution "\"lognormal\""
par DatabaseNetwork.user[24] serviceTime 0.1s
attr unit s
par DatabaseNetwork.user[24] lognormalM 1.5
par DatabaseNetwork.user[24] lognormalS 1
scalar DatabaseNetwork.user[24] totalAccesses 481
scalar DatabaseNetwork.user[24] totalReads 140
scalar DatabaseNetwork.user[24] totalWrites 341
scalar DatabaseNetwork.user[24] averageWaitTime 0.10391810818266
scalar DatabaseNetwork.user[24] accessesPerSecond 0.0481
par DatabaseNetwork.user[25] typename "\"progetto.User\""
par DatabaseNetwork.user[25] userId 25
par DatabaseNetwork.user[25] lambda 0.05
par DatabaseNetwork.user[25] readProbability 0.3
par DatabaseNetwork.user[25] numTables 20
par DatabaseNetwork.user[25] tableDistribution "\"lognormal\""
par DatabaseNetwork.user[25] serviceTime 0.1s
attr unit s
par DatabaseNetwork.user[25] lognormalM 1.5
par DatabaseNetwork.user[25] lognormalS 1
scalar DatabaseNetwork.user[25] totalAccesses 490
scalar DatabaseNetwork.user[25] totalReads 152
scalar DatabaseNetwork.user[25] totalWrites 338
scalar DatabaseNetwork.user[25] averageWaitTime 0.10560391536988
scalar DatabaseNetwork.user[25] accessesPerSecond 0.049
par DatabaseNetwork.user[26] typename "\"progetto.User\""
par DatabaseNetwork.user[26] userId 26
par DatabaseNetwork.user[26] lambda 0.05
par DatabaseNetwork.user[26] readProbability 0.3
par DatabaseNetwork.user[26] numTables 20
par DatabaseNetwork.user[26] tableDistribution "\"lognormal\""
par DatabaseNetwork.user[26] serviceTime 0.1s
attr unit s
par DatabaseNetwork.user[26] lognormalM 1.5
par DatabaseNetwork.user[26] lognormalS 1
scalar DatabaseNetwork.user[26] totalAccesses 509
scalar DatabaseNetwork.user[26] totalReads 158
scalar DatabaseNetwork.user[26] totalWrites 351
scalar DatabaseNetwork.user[26] averageWaitTime 0.10549258052741
scalar DatabaseNetwork.user[26] accessesPerSecond 0.0509
par DatabaseNetwork.user[27] typename "\"progetto.User\""
par DatabaseNetwork.user[27] userId 27
par DatabaseNetwork.user[27] lambda 0.05
par DatabaseNetwork.user[27] readProbability 0.3
par DatabaseNetwork.user[27] numTables 20
par DatabaseNetwork.user[27] tableDistribution "\"lognormal\""
par DatabaseNetwork.user[27] serviceTime 0.1s
attr unit s
par DatabaseNetwork.user[27] lognormalM 1.5
par DatabaseNetwork.user[27] lognormalS 1
scalar DatabaseNetwork.user[27] totalAccesses 483
scalar DatabaseNetwork.user[27] totalReads 122
scalar DatabaseNetwork.user[27] totalWrites 361
scalar DatabaseNetwork.user[27] averageWaitTime 0.10719338608516
scalar DatabaseNetwork.user[27] accessesPerSecond 0.0483
par DatabaseNetwork.user[28] typename "\"progetto.User\""
par DatabaseNetwork.user[28] userId 28
par DatabaseNetwork.user[28] lambda 0.05
par DatabaseNetwork.user[28] readProbability 0.3
par DatabaseNetwork.user[28] numTables 20
par DatabaseNetwork.user[28] tableDistribution "\"lognormal\""
par DatabaseNetwork.user[28] serviceTime 0.1s
attr unit s
par DatabaseNetwork.user[28] lognormalM 1.5
par DatabaseNetwork.user[28] lognormalS 1
scalar DatabaseNetwork.user[28] totalAccesses 493
scalar DatabaseNetwork.user[28] totalReads 147
scalar DatabaseNetwork.user[28] totalWrites 346
scalar DatabaseNetwork.user[28] averageWaitTime 0.10375065202996
scalar DatabaseNetwork.user[28] accessesPerSecond 0.0493
par DatabaseNetwork.user[29] typename "\"progetto.User\""
par DatabaseNetwork.user[29] userId 29
par DatabaseNetwork.user[29] lambda 0.05
par DatabaseNetwork.user[29] readProbability 0.3
par DatabaseNetwork.user[29] numTables 20
par DatabaseNetwork.user[29] tableDistribution "\"lognormal\""
par DatabaseNetwork.user[29] serviceTime 0.1s
attr unit s
par DatabaseNetwork.user[29] lognormalM 1.5
par DatabaseNetwork.user[29] lognormalS 1
scalar DatabaseNetwork.user[29] totalAccesses 504
scalar DatabaseNetwork.user[29] totalReads 147
scalar DatabaseNetwork.user[29] totalWrites 357
scalar DatabaseNetwork.user[29] averageWaitTime 0.10483360142
scalar DatabaseNetwork.user[29] accessesPerSecond 0.0504
par DatabaseNetwork.user[30] typename "\"progetto.User\""
par DatabaseNetwork.user[30] userId 30
par DatabaseNetwork.user[30] lambda 0.05
par DatabaseNetwork.user[30] readProbability 0.3
par DatabaseNetwork.user[30] numTables 20
par DatabaseNetwork.user[30] tableDistribution "\"lognormal\""
par DatabaseNetwork.user[30] serviceTime 0.1s
attr unit s
par DatabaseNetwork.user[30] lognormalM 1.5
par DatabaseNetwork.user[30] lognormalS 1
scalar DatabaseNetwork.user[30] totalAccesses 516
scalar DatabaseNetwork.user[30] totalReads 152
scalar DatabaseNetwork.user[30] totalWrites 364
scalar DatabaseNetwork.user[30] averageWaitTime 0.10456555753607
scalar DatabaseNetwork.user[30] accessesPerSecond 0.0516
par DatabaseNetwork.user[31] typename "\"progetto.User\""
par DatabaseNetwork.user[31] userId 31
par DatabaseNetwork.user[31] lambda 0.05
par DatabaseNetwork.user[31] readProbability 0.3
par DatabaseNetwork.user[31] numTables 20
par DatabaseNetwork.user[31] tableDistribution "\"lognormal\""
par DatabaseNetwork.user[31] serviceTime 0.1s
attr unit s
par DatabaseNetwork.user[31] lognormalM 1.5
par DatabaseNetwork.user[31] lognormalS 1
scalar DatabaseNetwork.user[31] totalAccesses 475
scalar DatabaseNetwork.user[31] totalReads 147
scalar DatabaseNetwork.user[31] totalWrites 328
scalar DatabaseNetwork.user[31] averageWaitTime 0.10432841390356
scalar DatabaseNetwork.user[31] accessesPerSecond 0.0475
par DatabaseNetwork.user[32] typename "\"progetto.User\""
par DatabaseNetwork.user[32] userId 32
par DatabaseNetwork.user[32] lambda 0.05
par DatabaseNetwork.user[32] readProbability 0.3
par DatabaseNetwork.user[32] numTables 20
par DatabaseNetwork.user[32] tableDistribution "\"lognormal\""
par DatabaseNetwork.user[32] serviceTime 0.1s
attr unit s
par DatabaseNetwork.user[32] lognormalM 1.5
par DatabaseNetwork.user[32] lognormalS 1
scalar DatabaseNetwork.user[32] totalAccesses 553
scalar DatabaseNetwork.user[32] totalReads 175
scalar DatabaseNetwork.user[32] totalWrites 378
scalar DatabaseNetwork.user[32] averageWaitTime 0.10444682962198
scalar DatabaseNetwork.user[32] accessesPerSecond 0.0553
par DatabaseNetwork.user[33] typename "\"progetto.User\""
par DatabaseNetwork.user[33] userId 33
par DatabaseNetwork.user[33] lambda 0.05
par DatabaseNetwork.user[33] readProbability 0.3
par DatabaseNetwork.user[33] numTables 20
par DatabaseNetwork.user[33] tableDistribution "\"lognormal\""
par DatabaseNetwork.user[33] serviceTime 0.1s
attr unit s
par DatabaseNetwork.user[33] lognormalM 1.5
par DatabaseNetwork.user[33] lognormalS 1
scalar DatabaseNetwork.user[33] totalAccesses 529
scalar DatabaseNetwork.user[33] totalReads 170
scalar DatabaseNetwork.user[33] totalWrites 359
scalar DatabaseNetwork.user[33] averageWaitTime 0.10285434423073
scalar DatabaseNetwork.user[33] accessesPerSecond 0.0529
par DatabaseNetwork.user[34] typename "\"progetto.User\""
par DatabaseNetwork.user[34] userId 34
par DatabaseNetwork.user[34] lambda 0.05
par DatabaseNetwork.user[34] readProbability 0.3
par DatabaseNetwork.user[34] numTables 20
par DatabaseNetwork.user[34] tableDistribution "\"lognormal\""
par DatabaseNetwork.user[34] serviceTime 0.1s
attr unit s
par DatabaseNetwork.user[34] lognormalM 1.5
par DatabaseNetwork.user[34] lognormalS 1
scalar DatabaseNetwork.user[34] totalAccesses 529
scalar DatabaseNetwork.user[34] totalReads 163
scalar DatabaseNetwork.user[34] totalWrites 366
scalar DatabaseNetwork.user[34] averageWaitTime 0.1037345912611
scalar DatabaseNetwork.user[34] accessesPerSecond 0.0529
par DatabaseNetwork.user[35] typename "\"progetto.User\""
par DatabaseNetwork.user[35] userId 35
par DatabaseNetwork.user[35] lambda 0.05
par DatabaseNetwork.user[35] readProbability 0.3
par DatabaseNetwork.user[35] numTables 20
par DatabaseNetwork.user[35] tableDistribution "\"lognormal\""
par DatabaseNetwork.user[35] serviceTime 0.1s
attr unit s
par DatabaseNetwork.user[35] lognormalM 1.5
par DatabaseNetwork.user[35] lognormalS 1
scalar DatabaseNetwork.user[35] totalAccesses 488
scalar DatabaseNetwork.user[35] totalReads 152
scalar DatabaseNetwork.user[35] totalWrites 336
scalar DatabaseNetwork.user[35] averageWaitTime 0.10472898356734
scalar DatabaseNetwork.user[35] accessesPerSecond 0.0488
par DatabaseNetwork.user[36] typename "\"progetto.User\""
par DatabaseNetwork.user[36] userId 36
par DatabaseNetwork.user[36] lambda 0.05
par DatabaseNetwork.user[36] readProbability 0.3
par DatabaseNetwork.user[36] numTables 20
par DatabaseNetwork.user[36] tableDistribution "\"lognormal\""
par DatabaseNetwork.user[36] serviceTime 0.1s
attr unit s
par DatabaseNetwork.user[36] lognormalM 1.5
par DatabaseNetwork.user[36] lognormalS 1
scalar DatabaseNetwork.user[36] totalAccesses 495
scalar DatabaseNetwork.user[36] totalReads 152
scalar DatabaseNetwork.user[36] totalWrites 343
scalar DatabaseNetwork.user[36] averageWaitTime 0.10474773504522
scalar DatabaseNetwork.user[36] accessesPerSecond 0.0495
par DatabaseNetwork.user[37] typename "\"progetto.User\""
par DatabaseNetwork.user[37] userId 37
par DatabaseNetwork.user[37] lambda 0.05
par DatabaseNetwork.user[37] readProbability 0.3
par DatabaseNetwork.user[37] numTables 20
par DatabaseNetwork.user[37] tableDistribution "\"lognormal\""
par DatabaseNetwork.user[37] serviceTime 0.1s
attr unit s
par DatabaseNetwork.user[37] lognormalM 1.5
par DatabaseNetwork.user[37] lognormalS 1
scalar DatabaseNetwork.user[37] totalAccesses 485
scalar DatabaseNetwork.user[37] totalReads 148
scalar DatabaseNetwork.user[37] totalWrites 337
scalar DatabaseNetwork.user[37] averageWaitTime 0.10514681665099
scalar DatabaseNetwork.user[37] accessesPerSecond 0.0485
par DatabaseNetwork.user[38] typename "\"progetto.User\""
par DatabaseNetwork.user[38] userId 38
par DatabaseNetwork.user[38] lambda 0.05
par DatabaseNetwork.user[38] readProbability 0.3
par DatabaseNetwork.user[38] numTables 20
par DatabaseNetwork.user[38] tableDistribution "\"lognormal\""
par DatabaseNetwork.user[38] serviceTime 0.1s
attr unit s
par DatabaseNetwork.user[38] lognormalM 1.5
par DatabaseNetwork.user[38] lognormalS 1
scalar DatabaseNetwork.user[38] totalAccesses 495
scalar DatabaseNetwork.user[38] totalReads 149
scalar DatabaseNetwork.user[38] totalWrites 346
scalar DatabaseNetwork.user[38] averageWaitTime 0.10443366799038
scalar DatabaseNetwork.user[38] accessesPerSecond 0.0495
par DatabaseNetwork.user[39] typename "\"progetto.User\""
par DatabaseNetwork.user[39] userId 39
par DatabaseNetwork.user[39] lambda 0.05
par DatabaseNetwork.user[39] readProbability 0.3
par DatabaseNetwork.user[39] numTables 20
par DatabaseNetwork.user[39] tableDistribution "\"lognormal\""
par DatabaseNetwork.user[39] serviceTime 0.1s
attr unit s
par DatabaseNetwork.user[39] lognormalM 1.5
par DatabaseNetwork.user[39] lognormalS 1
scalar DatabaseNetwork.user[39] totalAccesses 526
scalar DatabaseNetwork.user[39] totalReads 159
scalar DatabaseNetwork.user[39] totalWrites 367
scalar DatabaseNetwork.user[39] averageWaitTime 0.10390173055423
scalar DatabaseNetwork.user[39] accessesPerSecond 0.0526
par DatabaseNetwork.user[40] typename "\"progetto.User\""
par DatabaseNetwork.user[40] userId 40
par DatabaseNetwork.user[40] lambda 0.05
par DatabaseNetwork.user[40] readProbability 0.3
par DatabaseNetwork.user[40] numTables 20
par DatabaseNetwork.user[40] tableDistribution "\"lognormal\""
par DatabaseNetwork.user[40] serviceTime 0.1s
attr unit s
par DatabaseNetwork.user[40] lognormalM 1.5
par DatabaseNetwork.user[40] lognormalS 1
scalar DatabaseNetwork.user[40] totalAccesses 467
scalar DatabaseNetwork.user[40] totalReads 148
scalar DatabaseNetwork.user[40] totalWrites 319
scalar DatabaseNetwork.user[40] averageWaitTime 0.10415805512568
scalar DatabaseNetwork.user[40] accessesPerSecond 0.0467
par DatabaseNetwork.user[41] typename "\"progetto.User\""
par DatabaseNetwork.user[41] userId 41
par DatabaseNetwork.user[41] lambda 0.05
par DatabaseNetwork.user[41] readProbability 0.3
par DatabaseNetwork.user[41] numTables 20
par DatabaseNetwork.user[41] tableDistribution "\"lognormal\""
par DatabaseNetwork.user[41] serviceTime 0.1s
attr unit s
par DatabaseNetwork.user[41] lognormalM 1.5
par DatabaseNetwork.user[41] lognormalS 1
scalar DatabaseNetwork.user[41] totalAccesses 522
scalar DatabaseNetwork.user[41] totalReads 153
scalar DatabaseNetwork.user[41] totalWrites 369
scalar DatabaseNetwork.user[41] averageWaitTime 0.10445465499163
scalar DatabaseNetwork.user[41] accessesPerSecond 0.0522
par DatabaseNetwork.user[42] typename "\"progetto.User\""
par DatabaseNetwork.user[42] userId 42
par DatabaseNetwork.user[42] lambda 0.05
par DatabaseNetwork.user[42] readProbability 0.3
par DatabaseNetwork.user[42] numTables 20
par DatabaseNetwork.user[42] tableDistribution "\"lognormal\""
par DatabaseNetwork.user[42] serviceTime 0.1s
attr unit s
par DatabaseNetwork.user[42] lognormalM 1.5
par DatabaseNetwork.user[42] lognormalS 1
scalar DatabaseNetwork.user[42] totalAccesses 453
scalar DatabaseNetwork.user[42] totalReads 134
scalar DatabaseNetwork.user[42] totalWrites 319
scalar DatabaseNetwork.user[42] averageWaitTime 0.10471478983658
scalar DatabaseNetwork.user[42] accessesPerSecond 0.0453
par DatabaseNetwork.user[43] typename "\"progetto.User\""
par DatabaseNetwork.user[43] userId 43
par DatabaseNetwork.user[43] lambda 0.05
par DatabaseNetwork.user[43] readProbability 0.3
par DatabaseNetwork.user[43] numTables 20
par DatabaseNetwork.user[43] tableDistribution "\"lognormal\""
par DatabaseNetwork.user[43] serviceTime 0.1s
attr unit s
par DatabaseNetwork.user[43] lognormalM 1.5
par DatabaseNetwork.user[43] lognormalS 1
scalar DatabaseNetwork.user[43] totalAccesses 499
scalar DatabaseNetwork.user[43] totalReads 162
scalar DatabaseNetwork.user[43] totalWrites 337
scalar DatabaseNetwork.user[43] averageWaitTime 0.10450100654343
scalar DatabaseNetwork.user[43] accessesPerSecond 0.0499
par DatabaseNetwork.user[44] typename "\"progetto.User\""
par DatabaseNetwork.user[44] userId 44
par DatabaseNetwork.user[44] lambda 0.05
par DatabaseNetwork.user[44] readProbability 0.3
par DatabaseNetwork.user[44] numTables 20
par DatabaseNetwork.user[44] tableDistribution "\"lognormal\""
par DatabaseNetwork.user[44] serviceTime 0.1s
attr unit s
par DatabaseNetwork.user[44] lognormalM 1.5
par DatabaseNetwork.user[44] lognormalS 1
scalar DatabaseNetwork.user[44] totalAccesses 491
scalar DatabaseNetwork.user[44] totalReads 157
scalar DatabaseNetwork.user[44] totalWrites 334
scalar DatabaseNetwork.user[44] averageWaitTime 0.10443405161313
scalar DatabaseNetwork.user[44] accessesPerSecond 0.0491
par DatabaseNetwork.user[45] typename "\"progetto.User\""
par DatabaseNetwork.user[45] userId 45
par DatabaseNetwork.user[45] lambda 0.05
par DatabaseNetwork.user[45] readProbability 0.3
par DatabaseNetwork.user[45] numTables 20
par DatabaseNetwork.user[45] tableDistribution "\"lognormal\""
par DatabaseNetwork.user[45] serviceTime 0.1s
attr unit s
par DatabaseNetwork.user[45] lognormalM 1.5
par DatabaseNetwork.user[45] lognormalS 1
scalar DatabaseNetwork.user[45] totalAccesses 480
scalar DatabaseNetwork.user[45] totalReads 141
scalar DatabaseNetwork.user[45] totalWrites 339
scalar DatabaseNetwork.user[45] averageWaitTime 0.10394530697486
scalar DatabaseNetwork.user[45] accessesPerSecond 0.048
par DatabaseNetwork.user[46] typename "\"progetto.User\""
par DatabaseNetwork.user[46] userId 46
par DatabaseNetwork.user[46] lambda 0.05
par DatabaseNetwork.user[46] readProbability 0.3
par DatabaseNetwork.user[46] numTables 20
par DatabaseNetwork.user[46] tableDistribution "\"lognormal\""
par DatabaseNetwork.user[46] serviceTime 0.1s
attr unit s
par DatabaseNetwork.user[46] lognormalM 1.5
par DatabaseNetwork.user[46] lognormalS 1
scalar DatabaseNetwork.user[46] totalAccesses 477
scalar DatabaseNetwork.user[46] totalReads 137
scalar DatabaseNetwork.user[46] totalWrites 340
scalar DatabaseNetwork.user[46] averageWaitTime 0.10382804661304
scalar DatabaseNetwork.user[46] accessesPerSecond 0.0477
par DatabaseNetwork.user[47] typename "\"progetto.User\""
par DatabaseNetwork.user[47] userId 47
par DatabaseNetwork.user[47] lambda 0.05
par DatabaseNetwork.user[47] readProbability 0.3
par DatabaseNetwork.user[47] numTables 20
par DatabaseNetwork.user[47] tableDistribution "\"lognormal\""
par DatabaseNetwork.user[47] serviceTime 0.1s
attr unit s
par DatabaseNetwork.user[47] lognormalM 1.5
par DatabaseNetwork.user[47] lognormalS 1
scalar DatabaseNetwork.user[47] totalAccesses 504
scalar DatabaseNetwork.user[47] totalReads 140
scalar DatabaseNetwork.user[47] totalWrites 364
scalar DatabaseNetwork.user[47] averageWaitTime 0.10512827736285
scalar DatabaseNetwork.user[47] accessesPerSecond 0.0504
par DatabaseNetwork.user[48] typename "\"progetto.User\""
par DatabaseNetwork.user[48] userId 48
par DatabaseNetwork.user[48] lambda 0.05
par DatabaseNetwork.user[48] readProbability 0.3
par DatabaseNetwork.user[48] numTables 20
par DatabaseNetwork.user[48] tableDistribution "\"lognormal\""
par DatabaseNetwork.user[48] serviceTime 0.1s
attr unit s
par DatabaseNetwork.user[48] lognormalM 1.5
par DatabaseNetwork.user[48] lognormalS 1
scalar DatabaseNetwork.user[48] totalAccesses 493
scalar DatabaseNetwork.user[48] totalReads 159
scalar DatabaseNetwork.user[48] totalWrites 334
scalar DatabaseNetwork.user[48] averageWaitTime 0.10647126632385
scalar DatabaseNetwork.user[48] accessesPerSecond 0.0493
par DatabaseNetwork.user[49] typename "\"progetto.User\""
par DatabaseNetwork.user[49] userId 49
par DatabaseNetwork.user[49] lambda 0.05
par DatabaseNetwork.user[49] readProbability 0.3
par DatabaseNetwork.user[49] numTables 20
par DatabaseNetwork.user[49] tableDistribution "\"lognormal\""
par DatabaseNetwork.user[49] serviceTime 0.1s
attr unit s
par DatabaseNetwork.user[49] lognormalM 1.5
par DatabaseNetwork.user[49] lognormalS 1
scalar DatabaseNetwork.user[49] totalAccesses 521
scalar DatabaseNetwork.user[49] totalReads 170
scalar DatabaseNetwork.user[49] totalWrites 351
scalar DatabaseNetwork.user[49] averageWaitTime 0.10392828744757
scalar DatabaseNetwork.user[49] accessesPerSecond 0.0521
par DatabaseNetwork.user[50] typename "\"progetto.User\""
par DatabaseNetwork.user[50] userId 50
par DatabaseNetwork.user[50] lambda 0.05
par DatabaseNetwork.user[50] readProbability 0.3
par DatabaseNetwork.user[50] numTables 20
par DatabaseNetwork.user[50] tableDistribution "\"lognormal\""
par DatabaseNetwork.user[50] serviceTime 0.1s
attr unit s
par DatabaseNetwork.user[50] lognormalM 1.5
par DatabaseNetwork.user[50] lognormalS 1
scalar DatabaseNetwork.user[50] totalAccesses 512
scalar DatabaseNetwork.user[50] totalReads 167
scalar DatabaseNetwork.user[50] totalWrites 345
scalar DatabaseNetwork.user[50] averageWaitTime 0.10407500141799
scalar DatabaseNetwork.user[50] accessesPerSecond 0.0512
par DatabaseNetwork.user[51] typename "\"progetto.User\""
par DatabaseNetwork.user[51] userId 51
par DatabaseNetwork.user[51] lambda 0.05
par DatabaseNetwork.user[51] readProbability 0.3
par DatabaseNetwork.user[51] numTables 20
par DatabaseNetwork.user[51] tableDistribution "\"lognormal\""
par DatabaseNetwork.user[51] serviceTime 0.1s
attr unit s
par DatabaseNetwork.user[51] lognormalM 1.5
par DatabaseNetwork.user[51] lognormalS 1
scalar DatabaseNetwork.user[51] totalAccesses 475
scalar DatabaseNetwork.user[51] totalReads 129
scalar DatabaseNetwork.user[51] totalWrites 346
scalar DatabaseNetwork.user[51] averageWaitTime 0.1048882137265
scalar DatabaseNetwork.user[51] accessesPerSecond 0.0475
par DatabaseNetwork.user[52] typename "\"progetto.User\""
par DatabaseNetwork.user[52] userId 52
par DatabaseNetwork.user[52] lambda 0.05
par DatabaseNetwork.user[52] readProbability 0.3
par DatabaseNetwork.user[52] numTables 20
par DatabaseNetwork.user[52] tableDistribution "\"lognormal\""
par DatabaseNetwork.user[52] serviceTime 0.1s
attr unit s
par DatabaseNetwork.user[52] lognormalM 1.5
par DatabaseNetwork.user[52] lognormalS 1
scalar DatabaseNetwork.user[52] totalAccesses 508
scalar DatabaseNetwork.user[52] totalReads 153
scalar DatabaseNetwork.user[52] totalWrites 355
scalar DatabaseNetwork.user[52] averageWaitTime 0.10547796341508
scalar DatabaseNetwork.user[52] accessesPerSecond 0.0508
par DatabaseNetwork.user[53] typename "\"progetto.User\""
par DatabaseNetwork.user[53] userId 53
par DatabaseNetwork.user[53] lambda 0.05
par DatabaseNetwork.user[53] readProbability 0.3
par DatabaseNetwork.user[53] numTables 20
par DatabaseNetwork.user[53] tableDistribution "\"lognormal\""
par DatabaseNetwork.user[53] serviceTime 0.1s
attr unit s
par DatabaseNetwork.user[53] lognormalM 1.5
par DatabaseNetwork.user[53] lognormalS 1
scalar DatabaseNetwork.user[53] totalAccesses 503
scalar DatabaseNetwork.user[53] totalReads 154
scalar DatabaseNetwork.user[53] totalWrites 349
scalar DatabaseNetwork.user[53] averageWaitTime 0.10525362770208
scalar DatabaseNetwork.user[53] accessesPerSecond 0.0503
par DatabaseNetwork.user[54] typename "\"progetto.User\""
par DatabaseNetwork.user[54] userId 54
par DatabaseNetwork.user[54] lambda 0.05
par DatabaseNetwork.user[54] readProbability 0.3
par DatabaseNetwork.user[54] numTables 20
par DatabaseNetwork.user[54] tableDistribution "\"lognormal\""
par DatabaseNetwork.user[54] serviceTime 0.1s
attr unit s
par DatabaseNetwork.user[54] lognormalM 1.5
par DatabaseNetwork.user[54] lognormalS 1
scalar DatabaseNetwork.user[54] totalAccesses 523
scalar DatabaseNetwork.user[54] totalReads 146
scalar DatabaseNetwork.user[54] totalWrites 377
scalar DatabaseNetwork.user[54] averageWaitTime 0.10509404399456
scalar DatabaseNetwork.user[54] accessesPerSecond 0.0523
par DatabaseNetwork.user[55] typename "\"progetto.User\""
par DatabaseNetwork.user[55] userId 55
par DatabaseNetwork.user[55] lambda 0.05
par DatabaseNetwork.user[55] readProbability 0.3
par DatabaseNetwork.user[55] numTables 20
par DatabaseNetwork.user[55] tableDistribution "\"lognormal\""
par DatabaseNetwork.user[55] serviceTime 0.1s
attr unit s
par DatabaseNetwork.user[55] lognormalM 1.5
par DatabaseNetwork.user[55] lognormalS 1
scalar DatabaseNetwork.user[55] totalAccesses 473
scalar DatabaseNetwork.user[55] totalReads 161
scalar DatabaseNetwork.user[55] totalWrites 312
scalar DatabaseNetwork.user[55] averageWaitTime 0.10574612887108
scalar DatabaseNetwork.user[55] accessesPerSecond 0.0473
par DatabaseNetwork.user[56] typename "\"progetto.User\""
par DatabaseNetwork.user[56] userId 56
par DatabaseNetwork.user[56] lambda 0.05
par DatabaseNetwork.user[56] readProbability 0.3
par DatabaseNetwork.user[56] numTables 20
par DatabaseNetwork.user[56] tableDistribution "\"lognormal\""
par DatabaseNetwork.user[56] serviceTime 0.1s
attr unit s
par DatabaseNetwork.user[56] lognormalM 1.5
par DatabaseNetwork.user[56] lognormalS 1
scalar DatabaseNetwork.user[56] totalAccesses 478
scalar DatabaseNetwork.user[56] totalReads 149
scalar DatabaseNetwork.user[56] totalWrites 329
scalar DatabaseNetwork.user[56] averageWaitTime 0.10379568252121
scalar DatabaseNetwork.user[56] accessesPerSecond 0.0478
par DatabaseNetwork.user[57] typename "\"progetto.User\""
par DatabaseNetwork.user[57] userId 57
par DatabaseNetwork.user[57] lambda 0.05
par DatabaseNetwork.user[57] readProbability 0.3
par DatabaseNetwork.user[57] numTables 20
par DatabaseNetwork.user[57] tableDistribution "\"lognormal\""
par DatabaseNetwork.user[57] serviceTime 0.1s
attr unit s
par DatabaseNetwork.user[57] lognormalM 1.5
par DatabaseNetwork.user[57] lognormalS 1
scalar DatabaseNetwork.user[57] totalAccesses 490
scalar DatabaseNetwork.user[57] totalReads 154
scalar DatabaseNetwork.user[57] totalWrites 336
scalar DatabaseNetwork.user[57] averageWaitTime 0.10410582555601
scalar DatabaseNetwork.user[57] accessesPerSecond 0.049
par DatabaseNetwork.user[58] typename "\"progetto.User\""
par DatabaseNetwork.user[58] userId 58
par DatabaseNetwork.user[58] lambda 0.05
par DatabaseNetwork.user[58] readProbability 0.3
par DatabaseNetwork.user[58] numTables 20
par DatabaseNetwork.user[58] tableDistribution "\"lognormal\""
par DatabaseNetwork.user[58] serviceTime 0.1s
attr unit s
par DatabaseNetwork.user[58] lognormalM 1.5
par DatabaseNetwork.user[58] lognormalS 1
scalar DatabaseNetwork.user[58] totalAccesses 457
scalar DatabaseNetwork.user[58] totalReads 132
scalar DatabaseNetwork.user[58] totalWrites 325
scalar DatabaseNetwork.user[58] averageWaitTime 0.10410094492182
scalar DatabaseNetwork.user[58] accessesPerSecond 0.0457
par DatabaseNetwork.user[59] typename "\"progetto.User\""
par DatabaseNetwork.user[59] userId 59
par DatabaseNetwork.user[59] lambda 0.05
par DatabaseNetwork.user[59] readProbability 0.3
par DatabaseNetwork.user[59] numTables 20
par DatabaseNetwork.user[59] tableDistribution "\"lognormal\""
par DatabaseNetwork.user[59] serviceTime 0.1s
attr unit s
par DatabaseNetwork.user[59] lognormalM 1.5
par DatabaseNetwork.user[59] lognormalS 1
scalar DatabaseNetwork.user[59] totalAccesses 524
scalar DatabaseNetwork.user[59] totalReads 148
scalar DatabaseNetwork.user[59] totalWrites 376
scalar DatabaseNetwork.user[59] averageWaitTime 0.1053568654165
scalar DatabaseNetwork.user[59] accessesPerSecond 0.0524
par DatabaseNetwork.user[60] typename "\"progetto.User\""
par DatabaseNetwork.user[60] userId 60
par DatabaseNetwork.user[60] lambda 0.05
par DatabaseNetwork.user[60] readProbability 0.3
par DatabaseNetwork.user[60] numTables 20
par DatabaseNetwork.user[60] tableDistribution "\"lognormal\""
par DatabaseNetwork.user[60] serviceTime 0.1s
attr unit s
par DatabaseNetwork.user[60] lognormalM 1.5
par DatabaseNetwork.user[60] lognormalS 1
scalar DatabaseNetwork.user[60] totalAccesses 505
scalar DatabaseNetwork.user[60] totalReads 149
scalar DatabaseNetwork.user[60] totalWrites 356
scalar DatabaseNetwork.user[60] averageWaitTime 0.10452213758272
scalar DatabaseNetwork.user[60] accessesPerSecond 0.0505
par DatabaseNetwork.user[61] typename "\"progetto.User\""
par DatabaseNetwork.user[61] userId 61
par DatabaseNetwork.user[61] lambda 0.05
par DatabaseNetwork.user[61] readProbability 0.3
par DatabaseNetwork.user[61] numTables 20
par DatabaseNetwork.user[61] tableDistribution "\"lognormal\""
par DatabaseNetwork.user[61] serviceTime 0.1s
attr unit s
par DatabaseNetwork.user[61] lognormalM 1.5
par DatabaseNetwork.user[61] lognormalS 1
scalar DatabaseNetwork.user[61] totalAccesses 525
scalar DatabaseNetwork.user[61] totalReads 146
scalar DatabaseNetwork.user[61] totalWrites 379
scalar DatabaseNetwork.user[61] averageWaitTime 0.10493899405985
scalar DatabaseNetwork.user[61] accessesPerSecond 0.0525
par DatabaseNetwork.user[62] typename "\"progetto.User\""
par DatabaseNetwork.user[62] userId 62
par DatabaseNetwork.user[62] lambda 0.05
par DatabaseNetwork.user[62] readProbability 0.3
par DatabaseNetwork.user[62] numTables 20
par DatabaseNetwork.user[62] tableDistribution "\"lognormal\""
par DatabaseNetwork.user[62] serviceTime 0.1s
attr unit s
par DatabaseNetwork.user[62] lognormalM 1.5
par DatabaseNetwork.user[62] lognormalS 1
scalar DatabaseNetwork.user[62] totalAccesses 482
scalar DatabaseNetwork.user[62] totalReads 151
scalar DatabaseNetwork.user[62] totalWrites 331
scalar DatabaseNetwork.user[62] averageWaitTime 0.10365289046277
scalar DatabaseNetwork.user[62] accessesPerSecond 0.0482
par DatabaseNetwork.user[63] typename "\"progetto.User\""
par DatabaseNetwork.user[63] userId 63
par DatabaseNetwork.user[63] lambda 0.05
par DatabaseNetwork.user[63] readProbability 0.3
par DatabaseNetwork.user[63] numTables 20
par DatabaseNetwork.user[63] tableDistribution "\"lognormal\""
par DatabaseNetwork.user[63] serviceTime 0.1s
attr unit s
par DatabaseNetwork.user[63] lognormalM 1.5
par DatabaseNetwork.user[63] lognormalS 1
scalar DatabaseNetwork.user[63] totalAccesses 494
scalar DatabaseNetwork.user[63] totalReads 153
scalar DatabaseNetwork.user[63] totalWrites 341
scalar DatabaseNetwork.user[63] averageWaitTime 0.10292656656023
scalar DatabaseNetwork.user[63] accessesPerSecond 0.0494
par DatabaseNetwork.user[64] typename "\"progetto.User\""
par DatabaseNetwork.user[64] userId 64
par DatabaseNetwork.user[64] lambda 0.05
par DatabaseNetwork.user[64] readProbability 0.3
par DatabaseNetwork.user[64] numTables 20
par DatabaseNetwork.user[64] tableDistribution "\"lognormal\""
par DatabaseNetwork.user[64] serviceTime 0.1s
attr unit s
par DatabaseNetwork.user[64] lognormalM 1.5
par DatabaseNetwork.user[64] lognormalS 1
scalar DatabaseNetwork.user[64] totalAccesses 493
scalar DatabaseNetwork.user[64] totalReads 143
scalar DatabaseNetwork.user[64] totalWrites 350
scalar DatabaseNetwork.user[64] averageWaitTime 0.10361373735922
scalar DatabaseNetwork.user[64] accessesPerSecond 0.0493
par DatabaseNetwork.user[65] typename "\"progetto.User\""
par DatabaseNetwork.user[65] userId 65
par DatabaseNetwork.user[65] lambda 0.05
par DatabaseNetwork.user[65] readProbability 0.3
par DatabaseNetwork.user[65] numTables 20
par DatabaseNetwork.user[65] tableDistribution "\"lognormal\""
par DatabaseNetwork.user[65] serviceTime 0.1s
attr unit s
par DatabaseNetwork.user[65] lognormalM 1.5
par DatabaseNetwork.user[65] lognormalS 1
scalar DatabaseNetwork.user[65] totalAccesses 508
scalar DatabaseNetwork.user[65] totalReads 153
scalar DatabaseNetwork.user[65] totalWrites 355
scalar DatabaseNetwork.user[65] averageWaitTime 0.10310229382501
scalar DatabaseNetwork.user[65] accessesPerSecond 0.0508
par DatabaseNetwork.user[66] typename "\"progetto.User\""
par DatabaseNetwork.user[66] userId 66
par DatabaseNetwork.user[66] lambda 0.05
par DatabaseNetwork.user[66] readProbability 0.3
par DatabaseNetwork.user[66] numTables 20
par DatabaseNetwork.user[66] tableDistribution "\"lognormal\""
par DatabaseNetwork.user[66] serviceTime 0.1s
attr unit s
par DatabaseNetwork.user[66] lognormalM 1.5
par DatabaseNetwork.user[66] lognormalS 1
scalar DatabaseNetwork.user[66] totalAccesses 486
scalar DatabaseNetwork.user[66] totalReads 156
scalar DatabaseNetwork.user[66] totalWrites 330
scalar DatabaseNetwork.user[66] averageWaitTime 0.10348118643379
scalar DatabaseNetwork.user[66] accessesPerSecond 0.0486
par DatabaseNetwork.user[67] typename "\"progetto.User\""
par DatabaseNetwork.user[67] userId 67
par DatabaseNetwork.user[67] lambda 0.05
par DatabaseNetwork.user[67] readProbability 0.3
par DatabaseNetwork.user[67] numTables 20
par DatabaseNetwork.user[67] tableDistribution "\"lognormal\""
par DatabaseNetwork.user[67] serviceTime 0.1s
attr unit s
par DatabaseNetwork.user[67] lognormalM 1.5
par DatabaseNetwork.user[67] lognormalS 1
scalar DatabaseNetwork.user[67] totalAccesses 519
scalar DatabaseNetwork.user[67] totalReads 170
scalar DatabaseNetwork.user[67] totalWrites 349
scalar DatabaseNetwork.user[67] averageWaitTime 0.1044661838734
scalar DatabaseNetwork.user[67] accessesPerSecond 0.0519
par DatabaseNetwork.user[68] typename "\"progetto.User\""
par DatabaseNetwork.user[68] userId 68
par DatabaseNetwork.user[68] lambda 0.05
par DatabaseNetwork.user[68] readProbability 0.3
par DatabaseNetwork.user[68] numTables 20
par DatabaseNetwork.user[68] tableDistribution "\"lognormal\""
par DatabaseNetwork.user[68] serviceTime 0.1s
attr unit s
par DatabaseNetwork.user[68] lognormalM 1.5
par DatabaseNetwork.user[68] lognormalS 1
scalar DatabaseNetwork.user[68] totalAccesses 474
scalar DatabaseNetwork.user[68] totalReads 133
scalar DatabaseNetwork.user[68] totalWrites 341
scalar DatabaseNetwork.user[68] averageWaitTime 0.10441105920706
scalar DatabaseNetwork.user[68] accessesPerSecond 0.0474
par DatabaseNetwork.user[69] typename "\"progetto.User\""
par DatabaseNetwork.user[69] userId 69
par DatabaseNetwork.user[69] lambda 0.05
par DatabaseNetwork.user[69] readProbability 0.3
par DatabaseNetwork.user[69] numTables 20
par DatabaseNetwork.user[69] tableDistribution "\"lognormal\""
par DatabaseNetwork.user[69] serviceTime 0.1s
attr unit s
par DatabaseNetwork.user[69] lognormalM 1.5
par DatabaseNetwork.user[69] lognormalS 1
scalar DatabaseNetwork.user[69] totalAccesses 469
scalar DatabaseNetwork.user[69] totalReads 140
scalar DatabaseNetwork.user[69] totalWrites 329
scalar DatabaseNetwork.user[69] averageWaitTime 0.10398257369113
scalar DatabaseNetwork.user[69] accessesPerSecond 0.0469
par DatabaseNetwork.user[70] typename "\"progetto.User\""
par DatabaseNetwork.user[70] userId 70
par DatabaseNetwork.user[70] lambda 0.05
par DatabaseNetwork.user[70] readProbability 0.3
par DatabaseNetwork.user[70] numTables 20
par DatabaseNetwork.user[70] tableDistribution "\"lognormal\""
par DatabaseNetwork.user[70] serviceTime 0.1s
attr unit s
par DatabaseNetwork.user[70] lognormalM 1.5
par DatabaseNetwork.user[70] lognormalS 1
scalar DatabaseNetwork.user[70] totalAccesses 514
scalar DatabaseNetwork.user[70] totalReads 155
scalar DatabaseNetwork.user[70] totalWrites 359
scalar DatabaseNetwork.user[70] averageWaitTime 0.10350152429006
scalar DatabaseNetwork.user[70] accessesPerSecond 0.0514
par DatabaseNetwork.user[71] typename "\"progetto.User\""
par DatabaseNetwork.user[71] userId 71
par DatabaseNetwork.user[71] lambda 0.05
par DatabaseNetwork.user[71] readProbability 0.3
par DatabaseNetwork.user[71] numTables 20
par DatabaseNetwork.user[71] tableDistribution "\"lognormal\""
par DatabaseNetwork.user[71] serviceTime 0.1s
attr unit s
par DatabaseNetwork.user[71] lognormalM 1.5
par DatabaseNetwork.user[71] lognormalS 1
scalar DatabaseNetwork.user[71] totalAccesses 458
scalar DatabaseNetwork.user[71] totalReads 134
scalar DatabaseNetwork.user[71] totalWrites 324
scalar DatabaseNetwork.user[71] averageWaitTime 0.10292795474376
scalar DatabaseNetwork.user[71] accessesPerSecond 0.0458
par DatabaseNetwork.user[72] typename "\"progetto.User\""
par DatabaseNetwork.user[72] userId 72
par DatabaseNetwork.user[72] lambda 0.05
par DatabaseNetwork.user[72] readProbability 0.3
par DatabaseNetwork.user[72] numTables 20
par DatabaseNetwork.user[72] tableDistribution "\"lognormal\""
par DatabaseNetwork.user[72] serviceTime 0.1s
attr unit s
par DatabaseNetwork.user[72] lognormalM 1.5
par DatabaseNetwork.user[72] lognormalS 1
scalar DatabaseNetwork.user[72] totalAccesses 537
scalar DatabaseNetwork.user[72] totalReads 149
scalar DatabaseNetwork.user[72] totalWrites 388
scalar DatabaseNetwork.user[72] averageWaitTime 0.10534798468441
scalar DatabaseNetwork.user[72] accessesPerSecond 0.0537
par DatabaseNetwork.user[73] typename "\"progetto.User\""
par DatabaseNetwork.user[73] userId 73
par DatabaseNetwork.user[73] lambda 0.05
par DatabaseNetwork.user[73] readProbability 0.3
par DatabaseNetwork.user[73] numTables 20
par DatabaseNetwork.user[73] tableDistribution "\"lognormal\""
par DatabaseNetwork.user[73] serviceTime 0.1s
attr unit s
par DatabaseNetwork.user[73] lognormalM 1.5
par DatabaseNetwork.user[73] lognormalS 1
scalar DatabaseNetwork.user[73] totalAccesses 522
scalar DatabaseNetwork.user[73] totalReads 153
scalar DatabaseNetwork.user[73] totalWrites 369
scalar DatabaseNetwork.user[73] averageWaitTime 0.10462061018111
scalar DatabaseNetwork.user[73] accessesPerSecond 0.0522
par DatabaseNetwork.user[74] typename "\"progetto.User\""
par DatabaseNetwork.user[74] userId 74
par DatabaseNetwork.user[74] lambda 0.05
par DatabaseNetwork.user[74] readProbability 0.3
par DatabaseNetwork.user[74] numTables 20
par DatabaseNetwork.user[74] tableDistribution "\"lognormal\""
par DatabaseNetwork.user[74] serviceTime 0.1s
attr unit s
par DatabaseNetwork.user[74] lognormalM 1.5
par DatabaseNetwork.user[74] lognormalS 1
scalar DatabaseNetwork.user[74] totalAccesses 531
scalar DatabaseNetwork.user[74] totalReads 162
scalar DatabaseNetwork.user[74] totalWrites 369
scalar DatabaseNetwork.user[74] averageWaitTime 0.10391044268357
scalar DatabaseNetwork.user[74] accessesPerSecond 0.0531
par DatabaseNetwork.user[75] typename "\"progetto.User\""
par DatabaseNetwork.user[75] userId 75
par DatabaseNetwork.user[75] lambda 0.05
par DatabaseNetwork.user[75] readProbability 0.3
par DatabaseNetwork.user[75] numTables 20
par DatabaseNetwork.user[75] tableDistribution "\"lognormal\""
par DatabaseNetwork.user[75] serviceTime 0.1s
attr unit s
par DatabaseNetwork.user[75] lognormalM 1.5
par DatabaseNetwork.user[75] lognormalS 1
scalar DatabaseNetwork.user[75] totalAccesses 534
scalar DatabaseNetwork.user[75] totalReads 170
scalar DatabaseNetwork.user[75] totalWrites 364
scalar DatabaseNetwork.user[75] averageWaitTime 0.10363905838232
scalar DatabaseNetwork.user[75] accessesPerSecond 0.0534
par DatabaseNetwork.user[76] typename "\"progetto.User\""
par DatabaseNetwork.user[76] userId 76
par DatabaseNetwork.user[76] lambda 0.05
par DatabaseNetwork.user[76] readProbability 0.3
par DatabaseNetwork.user[76] numTables 20
par DatabaseNetwork.user[76] tableDistribution "\"lognormal\""
par DatabaseNetwork.user[76] serviceTime 0.1s
attr unit s
par DatabaseNetwork.user[76] lognormalM 1.5
par DatabaseNetwork.user[76] lognormalS 1
scalar DatabaseNetwork.user[76] totalAccesses 517
scalar DatabaseNetwork.user[76] totalReads 169
scalar DatabaseNetwork.user[76] totalWrites 348
scalar DatabaseNetwork.user[76] averageWaitTime 0.10543889082539
scalar DatabaseNetwork.user[76] accessesPerSecond 0.0517
par DatabaseNetwork.user[77] typename "\"progetto.User\""
par DatabaseNetwork.user[77] userId 77
par DatabaseNetwork.user[77] lambda 0.05
par DatabaseNetwork.user[77] readProbability 0.3
par DatabaseNetwork.user[77] numTables 20
par DatabaseNetwork.user[77] tableDistribution "\"lognormal\""
par DatabaseNetwork.user[77] serviceTime 0.1s
attr unit s
par DatabaseNetwork.user[77] lognormalM 1.5
par DatabaseNetwork.user[77] lognormalS 1
scalar DatabaseNetwork.user[77] totalAccesses 470
scalar DatabaseNetwork.user[77] totalReads 136
scalar DatabaseNetwork.user[77] totalWrites 334
scalar DatabaseNetwork.user[77] averageWaitTime 0.10397035302957
scalar DatabaseNetwork.user[77] accessesPerSecond 0.047
par DatabaseNetwork.user[78] typename "\"progetto.User\""
par DatabaseNetwork.user[78] userId 78
par DatabaseNetwork.user[78] lambda 0.05
par DatabaseNetwork.user[78] readProbability 0.3
par DatabaseNetwork.user[78] numTables 20
par DatabaseNetwork.user[78] tableDistribution "\"lognormal\""
par DatabaseNetwork.user[78] serviceTime 0.1s
attr unit s
par DatabaseNetwork.user[78] lognormalM 1.5
par DatabaseNetwork.user[78] lognormalS 1
scalar DatabaseNetwork.user[78] totalAccesses 536
scalar DatabaseNetwork.user[78] totalReads 172
scalar DatabaseNetwork.user[78] totalWrites 364
scalar DatabaseNetwork.user[78] averageWaitTime 0.10571293365821
scalar DatabaseNetwork.user[78] accessesPerSecond 0.0536
par DatabaseNetwork.user[79] typename "\"progetto.User\""
par DatabaseNetwork.user[79] userId 79
par DatabaseNetwork.user[79] lambda 0.05
par DatabaseNetwork.user[79] readProbability 0.3
par DatabaseNetwork.user[79] numTables 20
par DatabaseNetwork.user[79] tableDistribution "\"lognormal\""
par DatabaseNetwork.user[79] serviceTime 0.1s
attr unit s
par DatabaseNetwork.user[79] lognormalM 1.5
par DatabaseNetwork.user[79] lognormalS 1
scalar DatabaseNetwork.user[79] totalAccesses 488
scalar DatabaseNetwork.user[79] totalReads 144
scalar DatabaseNetwork.user[79] totalWrites 344
scalar DatabaseNetwork.user[79] averageWaitTime 0.10481134100713
scalar DatabaseNetwork.user[79] accessesPerSecond 0.0488
par DatabaseNetwork.user[80] typename "\"progetto.User\""
par DatabaseNetwork.user[80] userId 80
par DatabaseNetwork.user[80] lambda 0.05
par DatabaseNetwork.user[80] readProbability 0.3
par DatabaseNetwork.user[80] numTables 20
par DatabaseNetwork.user[80] tableDistribution "\"lognormal\""
par DatabaseNetwork.user[80] serviceTime 0.1s
attr unit s
par DatabaseNetwork.user[80] lognormalM 1.5
par DatabaseNetwork.user[80] lognormalS 1
scalar DatabaseNetwork.user[80] totalAccesses 522
scalar DatabaseNetwork.user[80] totalReads 161
scalar DatabaseNetwork.user[80] totalWrites 361
scalar DatabaseNetwork.user[80] averageWaitTime 0.10405822599684
scalar DatabaseNetwork.user[80] accessesPerSecond 0.0522
par DatabaseNetwork.user[81] typename "\"progetto.User\""
par DatabaseNetwork.user[81] userId 81
par DatabaseNetwork.user[81] lambda 0.05
par DatabaseNetwork.user[81] readProbability 0.3
par DatabaseNetwork.user[81] numTables 20
par DatabaseNetwork.user[81] tableDistribution "\"lognormal\""
par DatabaseNetwork.user[81] serviceTime 0.1s
attr unit s
par DatabaseNetwork.user[81] lognormalM 1.5
par DatabaseNetwork.user[81] lognormalS 1
scalar DatabaseNetwork.user[81] totalAccesses 518
scalar DatabaseNetwork.user[81] totalReads 132
scalar DatabaseNetwork.user[81] totalWrites 386
scalar DatabaseNetwork.user[81] averageWaitTime 0.10343543575233
scalar DatabaseNetwork.user[81] accessesPerSecond 0.0518
par DatabaseNetwork.user[82] typename "\"progetto.User\""
par DatabaseNetwork.user[82] userId 82
par DatabaseNetwork.user[82] lambda 0.05
par DatabaseNetwork.user[82] readProbability 0.3
par DatabaseNetwork.user[82] numTables 20
par DatabaseNetwork.user[82] tableDistribution "\"lognormal\""
par DatabaseNetwork.user[82] serviceTime 0.1s
attr unit s
par DatabaseNetwork.user[82] lognormalM 1.5
par DatabaseNetwork.user[82] lognormalS 1
scalar DatabaseNetwork.user[82] totalAccesses 473
scalar DatabaseNetwork.user[82] totalReads 144
scalar DatabaseNetwork.user[82] totalWrites 329
scalar DatabaseNetwork.user[82] averageWaitTime 0.1042423715008
scalar DatabaseNetwork.user[82] accessesPerSecond 0.0473
par DatabaseNetwork.user[83] typename "\"progetto.User\""
par DatabaseNetwork.user[83] userId 83
par DatabaseNetwork.user[83] lambda 0.05
par DatabaseNetwork.user[83] readProbability 0.3
par DatabaseNetwork.user[83] numTables 20
par DatabaseNetwork.user[83] tableDistribution "\"lognormal\""
par DatabaseNetwork.user[83] serviceTime 0.1s
attr unit s
par DatabaseNetwork.user[83] lognormalM 1.5
par DatabaseNetwork.user[83] lognormalS 1
scalar DatabaseNetwork.user[83] totalAccesses 526
scalar DatabaseNetwork.user[83] totalReads 145
scalar DatabaseNetwork.user[83] totalWrites 381
scalar DatabaseNetwork.user[83] averageWaitTime 0.10529425274351
scalar DatabaseNetwork.user[83] accessesPerSecond 0.0526
par DatabaseNetwork.user[84] typename "\"progetto.User\""
par DatabaseNetwork.user[84] userId 84
par DatabaseNetwork.user[84] lambda 0.05
par DatabaseNetwork.user[84] readProbability 0.3
par DatabaseNetwork.user[84] numTables 20
par DatabaseNetwork.user[84] tableDistribution "\"lognormal\""
par DatabaseNetwork.user[84] serviceTime 0.1s
attr unit s
par DatabaseNetwork.user[84] lognormalM 1.5
par DatabaseNetwork.user[84] lognormalS 1
scalar DatabaseNetwork.user[84] totalAccesses 518
scalar DatabaseNetwork.user[84] totalReads 160
scalar DatabaseNetwork.user[84] totalWrites 358
scalar DatabaseNetwork.user[84] averageWaitTime 0.10393303158289
scalar DatabaseNetwork.user[84] accessesPerSecond 0.0518
par DatabaseNetwork.user[85] typename "\"progetto.User\""
par DatabaseNetwork.user[85] userId 85
par DatabaseNetwork.user[85] lambda 0.05
par DatabaseNetwork.user[85] readProbability 0.3
par DatabaseNetwork.user[85] numTables 20
par DatabaseNetwork.user[85] tableDistribution "\"lognormal\""
par DatabaseNetwork.user[85] serviceTime 0.1s
attr unit s
par DatabaseNetwork.user[85] lognormalM 1.5
par DatabaseNetwork.user[85] lognormalS 1
scalar DatabaseNetwork.user[85] totalAccesses 476
scalar DatabaseNetwork.user[85] totalReads 147
scalar DatabaseNetwork.user[85] totalWrites 329
scalar DatabaseNetwork.user[85] averageWaitTime 0.10446445632722
scalar DatabaseNetwork.user[85] accessesPerSecond 0.0476
par DatabaseNetwork.user[86] typename "\"progetto.User\""
par DatabaseNetwork.user[86] userId 86
par DatabaseNetwork.user[86] lambda 0.05
par DatabaseNetwork.user[86] readProbability 0.3
par DatabaseNetwork.user[86] numTables 20
par DatabaseNetwork.user[86] tableDistribution "\"lognormal\""
par DatabaseNetwork.user[86] serviceTime 0.1s
attr unit s
par DatabaseNetwork.user[86] lognormalM 1.5
par DatabaseNetwork.user[86] lognormalS 1
scalar DatabaseNetwork.user[86] totalAccesses 489
scalar DatabaseNetwork.user[86] totalReads 143
scalar DatabaseNetwork.user[86] totalWrites 346
scalar DatabaseNetwork.user[86] averageWaitTime 0.10416264357443
scalar DatabaseNetwork.user[86] accessesPerSecond 0.0489
par DatabaseNetwork.user[87] typename "\"progetto.User\""
par DatabaseNetwork.user[87] userId 87
par DatabaseNetwork.user[87] lambda 0.05
par DatabaseNetwork.user[87] readProbability 0.3
par DatabaseNetwork.user[87] numTables 20
par DatabaseNetwork.user[87] tableDistribution "\"lognormal\""
par DatabaseNetwork.user[87] serviceTime 0.1s
attr unit s
par DatabaseNetwork.user[87] lognormalM 1.5
par DatabaseNetwork.user[87] lognormalS 1
scalar DatabaseNetwork.user[87] totalAccesses 480
scalar DatabaseNetwork.user[87] totalReads 148
scalar DatabaseNetwork.user[87] totalWrites 332
scalar DatabaseNetwork.user[87] averageWaitTime 0.10663589641878
scalar DatabaseNetwork.user[87] accessesPerSecond 0.048
par DatabaseNetwork.user[88] typename "\"progetto.User\""
par DatabaseNetwork.user[88] userId 88
par DatabaseNetwork.user[88] lambda 0.05
par DatabaseNetwork.user[88] readProbability 0.3
par DatabaseNetwork.user[88] numTables 20
par DatabaseNetwork.user[88] tableDistribution "\"lognormal\""
par DatabaseNetwork.user[88] serviceTime 0.1s
attr unit s
par DatabaseNetwork.user[88] lognormalM 1.5
par DatabaseNetwork.user[88] lognormalS 1
scalar DatabaseNetwork.user[88] totalAccesses 538
scalar DatabaseNetwork.user[88] totalReads 163
scalar DatabaseNetwork.user[88] totalWrites 375
scalar DatabaseNetwork.user[88] averageWaitTime 0.10359285559187
scalar DatabaseNetwork.user[88] accessesPerSecond 0.0538
par DatabaseNetwork.user[89] typename "\"progetto.User\""
par DatabaseNetwork.user[89] userId 89
par DatabaseNetwork.user[89] lambda 0.05
par DatabaseNetwork.user[89] readProbability 0.3
par DatabaseNetwork.user[89] numTables 20
par DatabaseNetwork.user[89] tableDistribution "\"lognormal\""
par DatabaseNetwork.user[89] serviceTime 0.1s
attr unit s
par DatabaseNetwork.user[89] lognormalM 1.5
par DatabaseNetwork.user[89] lognormalS 1
scalar DatabaseNetwork.user[89] totalAccesses 498
scalar DatabaseNetwork.user[89] totalReads 164
scalar DatabaseNetwork.user[89] totalWrites 334
scalar DatabaseNetwork.user[89] averageWaitTime 0.10492881760192
scalar DatabaseNetwork.user[89] accessesPerSecond 0.0498
par DatabaseNetwork.user[90] typename "\"progetto.User\""
par DatabaseNetwork.user[90] userId 90
par DatabaseNetwork.user[90] lambda 0.05
par DatabaseNetwork.user[90] readProbability 0.3
par DatabaseNetwork.user[90] numTables 20
par DatabaseNetwork.user[90] tableDistribution "\"lognormal\""
par DatabaseNetwork.user[90] serviceTime 0.1s
attr unit s
par DatabaseNetwork.user[90] lognormalM 1.5
par DatabaseNetwork.user[90] lognormalS 1
scalar DatabaseNetwork.user[90] totalAccesses 526
scalar DatabaseNetwork.user[90] totalReads 181
scalar DatabaseNetwork.user[90] totalWrites 345
scalar DatabaseNetwork.user[90] averageWaitTime 0.10489047035976
scalar DatabaseNetwork.user[90] accessesPerSecond 0.0526
par DatabaseNetwork.user[91] typename "\"progetto.User\""
par DatabaseNetwork.user[91] userId 91
par DatabaseNetwork.user[91] lambda 0.05
par DatabaseNetwork.user[91] readProbability 0.3
par DatabaseNetwork.user[91] numTables 20
par DatabaseNetwork.user[91] tableDistribution "\"lognormal\""
par DatabaseNetwork.user[91] serviceTime 0.1s
attr unit s
par DatabaseNetwork.user[91] lognormalM 1.5
par DatabaseNetwork.user[91] lognormalS 1
scalar DatabaseNetwork.user[91] totalAccesses 486
scalar DatabaseNetwork.user[91] totalReads 148
scalar DatabaseNetwork.user[91] totalWrites 338
scalar DatabaseNetwork.user[91] averageWaitTime 0.10418850161814
scalar DatabaseNetwork.user[91] accessesPerSecond 0.0486
par DatabaseNetwork.user[92] typename "\"progetto.User\""
par DatabaseNetwork.user[92] userId 92
par DatabaseNetwork.user[92] lambda 0.05
par DatabaseNetwork.user[92] readProbability 0.3
par DatabaseNetwork.user[92] numTables 20
par DatabaseNetwork.user[92] tableDistribution "\"lognormal\""
par DatabaseNetwork.user[92] serviceTime 0.1s
attr unit s
par DatabaseNetwork.user[92] lognormalM 1.5
par DatabaseNetwork.user[92] lognormalS 1
scalar DatabaseNetwork.user[92] totalAccesses 503
scalar DatabaseNetwork.user[92] totalReads 147
scalar DatabaseNetwork.user[92] totalWrites 356
scalar DatabaseNetwork.user[92] averageWaitTime 0.10346662586534
scalar DatabaseNetwork.user[92] accessesPerSecond 0.0503
par DatabaseNetwork.user[93] typename "\"progetto.User\""
par DatabaseNetwork.user[93] userId 93
par DatabaseNetwork.user[93] lambda 0.05
par DatabaseNetwork.user[93] readProbability 0.3
par DatabaseNetwork.user[93] numTables 20
par DatabaseNetwork.user[93] tableDistribution "\"lognormal\""
par DatabaseNetwork.user[93] serviceTime 0.1s
attr unit s
par DatabaseNetwork.user[93] lognormalM 1.5
par DatabaseNetwork.user[93] lognormalS 1
scalar DatabaseNetwork.user[93] totalAccesses 492
scalar DatabaseNetwork.user[93] totalReads 139
scalar DatabaseNetwork.user[93] totalWrites 353
scalar DatabaseNetwork.user[93] averageWaitTime 0.1046288460957
scalar DatabaseNetwork.user[93] accessesPerSecond 0.0492
par DatabaseNetwork.user[94] typename "\"progetto.User\""
par DatabaseNetwork.user[94] userId 94
par DatabaseNetwork.user[94] lambda 0.05
par DatabaseNetwork.user[94] readProbability 0.3
par DatabaseNetwork.user[94] numTables 20
par DatabaseNetwork.user[94] tableDistribution "\"lognormal\""
par DatabaseNetwork.user[94] serviceTime 0.1s
attr unit s
par DatabaseNetwork.user[94] lognormalM 1.5
par DatabaseNetwork.user[94] lognormalS 1
scalar DatabaseNetwork.user[94] totalAccesses 483
scalar DatabaseNetwork.user[94] totalReads 148
scalar DatabaseNetwork.user[94] totalWrites 335
scalar DatabaseNetwork.user[94] averageWaitTime 0.10363666145746
scalar DatabaseNetwork.user[94] accessesPerSecond 0.0483
par DatabaseNetwork.user[95] typename "\"progetto.User\""
par DatabaseNetwork.user[95] userId 95
par DatabaseNetwork.user[95] lambda 0.05
par DatabaseNetwork.user[95] readProbability 0.3
par DatabaseNetwork.user[95] numTables 20
par DatabaseNetwork.user[95] tableDistribution "\"lognormal\""
par DatabaseNetwork.user[95] serviceTime 0.1s
attr unit s
par DatabaseNetwork.user[95] lognormalM 1.5
par DatabaseNetwork.user[95] lognormalS 1
scalar DatabaseNetwork.user[95] totalAccesses 494
scalar DatabaseNetwork.user[95] totalReads 143
scalar DatabaseNetwork.user[95] totalWrites 351
scalar DatabaseNetwork.user[95] averageWaitTime 0.10365061174905
scalar DatabaseNetwork.user[95] accessesPerSecond 0.0494
par DatabaseNetwork.user[96] typename "\"progetto.User\""
par DatabaseNetwork.user[96] userId 96
par DatabaseNetwork.user[96] lambda 0.05
par DatabaseNetwork.user[96] readProbability 0.3
par DatabaseNetwork.user[96] numTables 20
par DatabaseNetwork.user[96] tableDistribution "\"lognormal\""
par DatabaseNetwork.user[96] serviceTime 0.1s
attr unit s
par DatabaseNetwork.user[96] lognormalM 1.5
par DatabaseNetwork.user[96] lognormalS 1
scalar DatabaseNetwork.user[96] totalAccesses 501
scalar DatabaseNetwork.user[96] totalReads 157
scalar DatabaseNetwork.user[96] totalWrites 344
scalar DatabaseNetwork.user[96] averageWaitTime 0.10275331818536
scalar DatabaseNetwork.user[96] accessesPerSecond 0.0501
par DatabaseNetwork.user[97] typename "\"progetto.User\""
par DatabaseNetwork.user[97] userId 97
par DatabaseNetwork.user[97] lambda 0.05
par DatabaseNetwork.user[97] readProbability 0.3
par DatabaseNetwork.user[97] numTables 20
par DatabaseNetwork.user[97] tableDistribution "\"lognormal\""
par DatabaseNetwork.user[97] serviceTime 0.1s
attr unit s
par DatabaseNetwork.user[97] lognormalM 1.5
par DatabaseNetwork.user[97] lognormalS 1
scalar DatabaseNetwork.user[97] totalAccesses 524
scalar DatabaseNetwork.user[97] totalReads 154
scalar DatabaseNetwork.user[97] totalWrites 370
scalar DatabaseNetwork.user[97] averageWaitTime 0.10502890497928
scalar DatabaseNetwork.user[97] accessesPerSecond 0.0524
par DatabaseNetwork.user[98] typename "\"progetto.User\""
par DatabaseNetwork.user[98] userId 98
par DatabaseNetwork.user[98] lambda 0.05
par DatabaseNetwork.user[98] readProbability 0.3
par DatabaseNetwork.user[98] numTables 20
par DatabaseNetwork.user[98] tableDistribution "\"lognormal\""
par DatabaseNetwork.user[98] serviceTime 0.1s
attr unit s
par DatabaseNetwork.user[98] lognormalM 1.5
par DatabaseNetwork.user[98] lognormalS 1
scalar DatabaseNetwork.user[98] totalAccesses 535
scalar DatabaseNetwork.user[98] totalReads 180
scalar DatabaseNetwork.user[98] totalWrites 355
scalar DatabaseNetwork.user[98] averageWaitTime 0.10549183488226
scalar DatabaseNetwork.user[98] accessesPerSecond 0.0535
par DatabaseNetwork.user[99] typename "\"progetto.User\""
par DatabaseNetwork.user[99] userId 99
par DatabaseNetwork.user[99] lambda 0.05
par DatabaseNetwork.user[99] readProbability 0.3
par DatabaseNetwork.user[99] numTables 20
par DatabaseNetwork.user[99] tableDistribution "\"lognormal\""
par DatabaseNetwork.user[99] serviceTime 0.1s
attr unit s
par DatabaseNetwork.user[99] lognormalM 1.5
par DatabaseNetwork.user[99] lognormalS 1
scalar DatabaseNetwork.user[99] totalAccesses 501
scalar DatabaseNetwork.user[99] totalReads 151
scalar DatabaseNetwork.user[99] totalWrites 350
scalar DatabaseNetwork.user[99] averageWaitTime 0.10474638819002
scalar DatabaseNetwork.user[99] accessesPerSecond 0.0501
par DatabaseNetwork.user[100] typename "\"progetto.User\""
par DatabaseNetwork.user[100] userId 100
par DatabaseNetwork.user[100] lambda 0.05
par DatabaseNetwork.user[100] readProbability 0.3
par DatabaseNetwork.user[100] numTables 20
par DatabaseNetwork.user[100] tableDistribution "\"lognormal\""
par DatabaseNetwork.user[100] serviceTime 0.1s
attr unit s
par DatabaseNetwork.user[100] lognormalM 1.5
par DatabaseNetwork.user[100] lognormalS 1
scalar DatabaseNetwork.user[100] totalAccesses 471
scalar DatabaseNetwork.user[100] totalReads 140
scalar DatabaseNetwork.user[100] totalWrites 331
scalar DatabaseNetwork.user[100] averageWaitTime 0.1060923239239
scalar DatabaseNetwork.user[100] accessesPerSecond 0.0471
par DatabaseNetwork.user[101] typename "\"progetto.User\""
par DatabaseNetwork.user[101] userId 101
par DatabaseNetwork.user[101] lambda 0.05
par DatabaseNetwork.user[101] readProbability 0.3
par DatabaseNetwork.user[101] numTables 20
par DatabaseNetwork.user[101] tableDistribution "\"lognormal\""
par DatabaseNetwork.user[101] serviceTime 0.1s
attr unit s
par DatabaseNetwork.user[101] lognormalM 1.5
par DatabaseNetwork.user[101] lognormalS 1
scalar DatabaseNetwork.user[101] totalAccesses 510
scalar DatabaseNetwork.user[101] totalReads 154
scalar DatabaseNetwork.user[101] totalWrites 356
scalar DatabaseNetwork.user[101] averageWaitTime 0.1041180563158
scalar DatabaseNetwork.user[101] accessesPerSecond 0.051
par DatabaseNetwork.user[102] typename "\"progetto.User\""
par DatabaseNetwork.user[102] userId 102
par DatabaseNetwork.user[102] lambda 0.05
par DatabaseNetwork.user[102] readProbability 0.3
par DatabaseNetwork.user[102] numTables 20
par DatabaseNetwork.user[102] tableDistribution "\"lognormal\""
par DatabaseNetwork.user[102] serviceTime 0.1s
attr unit s
par DatabaseNetwork.user[102] lognormalM 1.5
par DatabaseNetwork.user[102] lognormalS 1
scalar DatabaseNetwork.user[102] totalAccesses 495
scalar DatabaseNetwork.user[102] totalReads 151
scalar DatabaseNetwork.user[102] totalWrites 344
scalar DatabaseNetwork.user[102] averageWaitTime 0.10377787538998
scalar DatabaseNetwork.user[102] accessesPerSecond 0.0495
par DatabaseNetwork.user[103] typename "\"progetto.User\""
par DatabaseNetwork.user[103] userId 103
par DatabaseNetwork.user[103] lambda 0.05
par DatabaseNetwork.user[103] readProbability 0.3
par DatabaseNetwork.user[103] numTables 20
par DatabaseNetwork.user[103] tableDistribution "\"lognormal\""
par DatabaseNetwork.user[103] serviceTime 0.1s
attr unit s
par DatabaseNetwork.user[103] lognormalM 1.5
par DatabaseNetwork.user[103] lognormalS 1
scalar DatabaseNetwork.user[103] totalAccesses 483
scalar DatabaseNetwork.user[103] totalReads 143
scalar DatabaseNetwork.user[103] totalWrites 340
scalar DatabaseNetwork.user[103] averageWaitTime 0.10317123526785
scalar DatabaseNetwork.user[103] accessesPerSecond 0.0483
par DatabaseNetwork.user[104] typename "\"progetto.User\""
par DatabaseNetwork.user[104] userId 104
par DatabaseNetwork.user[104] lambda 0.05
par DatabaseNetwork.user[104] readProbability 0.3
par DatabaseNetwork.user[104] numTables 20
par DatabaseNetwork.user[104] tableDistribution "\"lognormal\""
par DatabaseNetwork.user[104] serviceTime 0.1s
attr unit s
par DatabaseNetwork.user[104] lognormalM 1.5
par DatabaseNetwork.user[104] lognormalS 1
scalar DatabaseNetwork.user[104] totalAccesses 490
scalar DatabaseNetwork.user[104] totalReads 166
scalar DatabaseNetwork.user[104] totalWrites 324
scalar DatabaseNetwork.user[104] averageWaitTime 0.1036932753927
scalar DatabaseNetwork.user[104] accessesPerSecond 0.049
par DatabaseNetwork.user[105] typename "\"progetto.User\""
par DatabaseNetwork.user[105] userId 105
par DatabaseNetwork.user[105] lambda 0.05
par DatabaseNetwork.user[105] readProbability 0.3
par DatabaseNetwork.user[105] numTables 20
par DatabaseNetwork.user[105] tableDistribution "\"lognormal\""
par DatabaseNetwork.user[105] serviceTime 0.1s
attr unit s
par DatabaseNetwork.user[105] lognormalM 1.5
par DatabaseNetwork.user[105] lognormalS 1
scalar DatabaseNetwork.user[105] totalAccesses 519
scalar DatabaseNetwork.user[105] totalReads 164
scalar DatabaseNetwork.user[105] totalWrites 355
scalar DatabaseNetwork.user[105] averageWaitTime 0.10349724452705
scalar DatabaseNetwork.user[105] accessesPerSecond 0.0519
par DatabaseNetwork.user[106] typename "\"progetto.User\""
par DatabaseNetwork.user[106] userId 106
par DatabaseNetwork.user[106] lambda 0.05
par DatabaseNetwork.user[106] readProbability 0.3
par DatabaseNetwork.user[106] numTables 20
par DatabaseNetwork.user[106] tableDistribution "\"lognormal\""
par DatabaseNetwork.user[106] serviceTime 0.1s
attr unit s
par DatabaseNetwork.user[106] lognormalM 1.5
par DatabaseNetwork.user[106] lognormalS 1
scalar DatabaseNetwork.user[106] totalAccesses 488
scalar DatabaseNetwork.user[106] totalReads 130
scalar DatabaseNetwork.user[106] totalWrites 358
scalar DatabaseNetwork.user[106] averageWaitTime 0.10528298269531
scalar DatabaseNetwork.user[106] accessesPerSecond 0.0488
par DatabaseNetwork.user[107] typename "\"progetto.User\""
par DatabaseNetwork.user[107] userId 107
par DatabaseNetwork.user[107] lambda 0.05
par DatabaseNetwork.user[107] readProbability 0.3
par DatabaseNetwork.user[107] numTables 20
par DatabaseNetwork.user[107] tableDistribution "\"lognormal\""
par DatabaseNetwork.user[107] serviceTime 0.1s
attr unit s
par DatabaseNetwork.user[107] lognormalM 1.5
par DatabaseNetwork.user[107] lognormalS 1
scalar DatabaseNetwork.user[107] totalAccesses 466
scalar DatabaseNetwork.user[107] totalReads 133
scalar DatabaseNetwork.user[107] totalWrites 333
scalar DatabaseNetwork.user[107] averageWaitTime 0.10400716121979
scalar DatabaseNetwork.user[107] accessesPerSecond 0.0466
par DatabaseNetwork.user[108] typename "\"progetto.User\""
par DatabaseNetwork.user[108] userId 108
par DatabaseNetwork.user[108] lambda 0.05
par DatabaseNetwork.user[108] readProbability 0.3
par DatabaseNetwork.user[108] numTables 20
par DatabaseNetwork.user[108] tableDistribution "\"lognormal\""
par DatabaseNetwork.user[108] serviceTime 0.1s
attr unit s
par DatabaseNetwork.user[108] lognormalM 1.5
par DatabaseNetwork.user[108] lognormalS 1
scalar DatabaseNetwork.user[108] totalAccesses 495
scalar DatabaseNetwork.user[108] totalReads 145
scalar DatabaseNetwork.user[108] totalWrites 350
scalar DatabaseNetwork.user[108] averageWaitTime 0.10596853584584
scalar DatabaseNetwork.user[108] accessesPerSecond 0.0495
par DatabaseNetwork.user[109] typename "\"progetto.User\""
par DatabaseNetwork.user[109] userId 109
par DatabaseNetwork.user[109] lambda 0.05
par DatabaseNetwork.user[109] readProbability 0.3
par DatabaseNetwork.user[109] numTables 20
par DatabaseNetwork.user[109] tableDistribution "\"lognormal\""
par DatabaseNetwork.user[109] serviceTime 0.1s
attr unit s
par DatabaseNetwork.user[109] lognormalM 1.5
par DatabaseNetwork.user[109] lognormalS 1
scalar DatabaseNetwork.user[109] totalAccesses 505
scalar DatabaseNetwork.user[109] totalReads 148
scalar DatabaseNetwork.user[109] totalWrites 357
scalar DatabaseNetwork.user[109] averageWaitTime 0.10388173245355
scalar DatabaseNetwork.user[109] accessesPerSecond 0.0505
par DatabaseNetwork.user[110] typename "\"progetto.User\""
par DatabaseNetwork.user[110] userId 110
par DatabaseNetwork.user[110] lambda 0.05
par DatabaseNetwork.user[110] readProbability 0.3
par DatabaseNetwork.user[110] numTables 20
par DatabaseNetwork.user[110] tableDistribution "\"lognormal\""
par DatabaseNetwork.user[110] serviceTime 0.1s
attr unit s
par DatabaseNetwork.user[110] lognormalM 1.5
par DatabaseNetwork.user[110] lognormalS 1
scalar DatabaseNetwork.user[110] totalAccesses 470
scalar DatabaseNetwork.user[110] totalReads 150
scalar DatabaseNetwork.user[110] totalWrites 320
scalar DatabaseNetwork.user[110] averageWaitTime 0.10429959899389
scalar DatabaseNetwork.user[110] accessesPerSecond 0.047
par DatabaseNetwork.user[111] typename "\"progetto.User\""
par DatabaseNetwork.user[111] userId 111
par DatabaseNetwork.user[111] lambda 0.05
par DatabaseNetwork.user[111] readProbability 0.3
par DatabaseNetwork.user[111] numTables 20
par DatabaseNetwork.user[111] tableDistribution "\"lognormal\""
par DatabaseNetwork.user[111] serviceTime 0.1s
attr unit s
par DatabaseNetwork.user[111] lognormalM 1.5
par DatabaseNetwork.user[111] lognormalS 1
scalar DatabaseNetwork.user[111] totalAccesses 495
scalar DatabaseNetwork.user[111] totalReads 162
scalar DatabaseNetwork.user[111] totalWrites 333
scalar DatabaseNetwork.user[111] averageWaitTime 0.10309274679454
scalar DatabaseNetwork.user[111] accessesPerSecond 0.0495
par DatabaseNetwork.user[112] typename "\"progetto.User\""
[...]
par DatabaseNetwork.user[188] lognormalM 1.5
par DatabaseNetwork.user[188] lognormalS 1
scalar DatabaseNetwork.user[188] totalAccesses 509
scalar DatabaseNetwork.user[188] totalReads 154
scalar DatabaseNetwork.user[188] totalWrites 355
scalar DatabaseNetwork.user[188] averageWaitTime 0.10335565588432
scalar DatabaseNetwork.user[188] accessesPerSecond 0.0509
par DatabaseNetwork.user[189] typename "\"progetto.User\""
par DatabaseNetwork.user[189] userId 189
par DatabaseNetwork.user[189] lambda 0.05
par DatabaseNetwork.user[189] readProbability 0.3
par DatabaseNetwork.user[189] numTables 20
par DatabaseNetwork.user[189] tableDistribution "\"lognormal\""
par DatabaseNetwork.user[189] serviceTime 0.1s
attr unit s
par DatabaseNetwork.user[189] lognormalM 1.5
par DatabaseNetwork.user[189] lognormalS 1
scalar DatabaseNetwork.user[189] totalAccesses 498
scalar DatabaseNetwork.user[189] totalReads 148
scalar DatabaseNetwork.user[189] totalWrites 350
scalar DatabaseNetwork.user[189] averageWaitTime 0.10364880302106
scalar DatabaseNetwork.user[189] accessesPerSecond 0.0498
par DatabaseNetwork.user[190] typename "\"progetto.User\""
par DatabaseNetwork.user[190] userId 190
par DatabaseNetwork.user[190] lambda 0.05
par DatabaseNetwork.user[190] readProbability 0.3
par DatabaseNetwork.user[190] numTables 20
par DatabaseNetwork.user[190] tableDistribution "\"lognormal\""
par DatabaseNetwork.user[190] serviceTime 0.1s
attr unit s
par DatabaseNetwork.user[190] lognormalM 1.5
par DatabaseNetwork.user[190] lognormalS 1
scalar DatabaseNetwork.user[190] totalAccesses 481
scalar DatabaseNetwork.user[190] totalReads 147
scalar DatabaseNetwork.user[190] totalWrites 334
scalar DatabaseNetwork.user[190] averageWaitTime 0.10402658039871
scalar DatabaseNetwork.user[190] accessesPerSecond 0.0481
par DatabaseNetwork.user[191] typename "\"progetto.User\""
par DatabaseNetwork.user[191] userId 191
par DatabaseNetwork.user[191] lambda 0.05
par DatabaseNetwork.user[191] readProbability 0.3
par DatabaseNetwork.user[191] numTables 20
par DatabaseNetwork.user[191] tableDistribution "\"lognormal\""
par DatabaseNetwork.user[191] serviceTime 0.1s
attr unit s
par DatabaseNetwork.user[191] lognormalM 1.5
par DatabaseNetwork.user[191] lognormalS 1
scalar DatabaseNetwork.user[191] totalAccesses 491
scalar DatabaseNetwork.user[191] totalReads 157
scalar DatabaseNetwork.user[191] totalWrites 334
scalar DatabaseNetwork.user[191] averageWaitTime 0.10490383167471
scalar DatabaseNetwork.user[191] accessesPerSecond 0.0491
par DatabaseNetwork.user[192] typename "\"progetto.User\""
par DatabaseNetwork.user[192] userId 192
par DatabaseNetwork.user[192] lambda 0.05
par DatabaseNetwork.user[192] readProbability 0.3
par DatabaseNetwork.user[192] numTables 20
par DatabaseNetwork.user[192] tableDistribution "\"lognormal\""
par DatabaseNetwork.user[192] serviceTime 0.1s
attr unit s
par DatabaseNetwork.user[192] lognormalM 1.5
par DatabaseNetwork.user[192] lognormalS 1
scalar DatabaseNetwork.user[192] totalAccesses 538
scalar DatabaseNetwork.user[192] totalReads 161
scalar DatabaseNetwork.user[192] totalWrites 377
scalar DatabaseNetwork.user[192] averageWaitTime 0.10404730659034
scalar DatabaseNetwork.user[192] accessesPerSecond 0.0538
par DatabaseNetwork.user[193] typename "\"progetto.User\""
par DatabaseNetwork.user[193] userId 193
par DatabaseNetwork.user[193] lambda 0.05
par DatabaseNetwork.user[193] readProbability 0.3
par DatabaseNetwork.user[193] numTables 20
par DatabaseNetwork.user[193] tableDistribution "\"lognormal\""
par DatabaseNetwork.user[193] serviceTime 0.1s
attr unit s
par DatabaseNetwork.user[193] lognormalM 1.5
par DatabaseNetwork.user[193] lognormalS 1
scalar DatabaseNetwork.user[193] totalAccesses 452
scalar DatabaseNetwork.user[193] totalReads 135
scalar DatabaseNetwork.user[193] totalWrites 317
scalar DatabaseNetwork.user[193] averageWaitTime 0.10415981357961
scalar DatabaseNetwork.user[193] accessesPerSecond 0.0452
par DatabaseNetwork.user[194] typename "\"progetto.User\""
par DatabaseNetwork.user[194] userId 194
par DatabaseNetwork.user[194] lambda 0.05
par DatabaseNetwork.user[194] readProbability 0.3
par DatabaseNetwork.user[194] numTables 20
par DatabaseNetwork.user[194] tableDistribution "\"lognormal\""
par DatabaseNetwork.user[194] serviceTime 0.1s
attr unit s
par DatabaseNetwork.user[194] lognormalM 1.5
par DatabaseNetwork.user[194] lognormalS 1
scalar DatabaseNetwork.user[194] totalAccesses 485
scalar DatabaseNetwork.user[194] totalReads 154
scalar DatabaseNetwork.user[194] totalWrites 331
scalar DatabaseNetwork.user[194] averageWaitTime 0.1060553944715
scalar DatabaseNetwork.user[194] accessesPerSecond 0.0485
par DatabaseNetwork.user[195] typename "\"progetto.User\""
par DatabaseNetwork.user[195] userId 195
par DatabaseNetwork.user[195] lambda 0.05
par DatabaseNetwork.user[195] readProbability 0.3
par DatabaseNetwork.user[195] numTables 20
par DatabaseNetwork.user[195] tableDistribution "\"lognormal\""
par DatabaseNetwork.user[195] serviceTime 0.1s
attr unit s
par DatabaseNetwork.user[195] lognormalM 1.5
par DatabaseNetwork.user[195] lognormalS 1
scalar DatabaseNetwork.user[195] totalAccesses 488
scalar DatabaseNetwork.user[195] totalReads 152
scalar DatabaseNetwork.user[195] totalWrites 336
scalar DatabaseNetwork.user[195] averageWaitTime 0.10518700374635
scalar DatabaseNetwork.user[195] accessesPerSecond 0.0488
par DatabaseNetwork.user[196] typename "\"progetto.User\""
par DatabaseNetwork.user[196] userId 196
par DatabaseNetwork.user[196] lambda 0.05
par DatabaseNetwork.user[196] readProbability 0.3
par DatabaseNetwork.user[196] numTables 20
par DatabaseNetwork.user[196] tableDistribution "\"lognormal\""
par DatabaseNetwork.user[196] serviceTime 0.1s
attr unit s
par DatabaseNetwork.user[196] lognormalM 1.5
par DatabaseNetwork.user[196] lognormalS 1
scalar DatabaseNetwork.user[196] totalAccesses 464
scalar DatabaseNetwork.user[196] totalReads 131
scalar DatabaseNetwork.user[196] totalWrites 333
scalar DatabaseNetwork.user[196] averageWaitTime 0.10345513762248
scalar DatabaseNetwork.user[196] accessesPerSecond 0.0464
par DatabaseNetwork.user[197] typename "\"progetto.User\""
par DatabaseNetwork.user[197] userId 197
par DatabaseNetwork.user[197] lambda 0.05
par DatabaseNetwork.user[197] readProbability 0.3
par DatabaseNetwork.user[197] numTables 20
par DatabaseNetwork.user[197] tableDistribution "\"lognormal\""
par DatabaseNetwork.user[197] serviceTime 0.1s
attr unit s
par DatabaseNetwork.user[197] lognormalM 1.5
par DatabaseNetwork.user[197] lognormalS 1
scalar DatabaseNetwork.user[197] totalAccesses 537
scalar DatabaseNetwork.user[197] totalReads 161
scalar DatabaseNetwork.user[197] totalWrites 376
scalar DatabaseNetwork.user[197] averageWaitTime 0.10553792696513
scalar DatabaseNetwork.user[197] accessesPerSecond 0.0537
par DatabaseNetwork.user[198] typename "\"progetto.User\""
par DatabaseNetwork.user[198] userId 198
par DatabaseNetwork.user[198] lambda 0.05
par DatabaseNetwork.user[198] readProbability 0.3
par DatabaseNetwork.user[198] numTables 20
par DatabaseNetwork.user[198] tableDistribution "\"lognormal\""
par DatabaseNetwork.user[198] serviceTime 0.1s
attr unit s
par DatabaseNetwork.user[198] lognormalM 1.5
par DatabaseNetwork.user[198] lognormalS 1
scalar DatabaseNetwork.user[198] totalAccesses 496
scalar DatabaseNetwork.user[198] totalReads 137
scalar DatabaseNetwork.user[198] totalWrites 359
scalar DatabaseNetwork.user[198] averageWaitTime 0.1047535641687
scalar DatabaseNetwork.user[198] accessesPerSecond 0.0496
par DatabaseNetwork.user[199] typename "\"progetto.User\""
par DatabaseNetwork.user[199] userId 199
par DatabaseNetwork.user[199] lambda 0.05
par DatabaseNetwork.user[199] readProbability 0.3
par DatabaseNetwork.user[199] numTables 20
par DatabaseNetwork.user[199] tableDistribution "\"lognormal\""
par DatabaseNetwork.user[199] serviceTime 0.1s
attr unit s
par DatabaseNetwork.user[199] lognormalM 1.5
par DatabaseNetwork.user[199] lognormalS 1
scalar DatabaseNetwork.user[199] totalAccesses 532
scalar DatabaseNetwork.user[199] totalReads 154
scalar DatabaseNetwork.user[199] totalWrites 378
scalar DatabaseNetwork.user[199] averageWaitTime 0.10442090976846
scalar DatabaseNetwork.user[199] accessesPerSecond 0.0532
par DatabaseNetwork.table[0] typename "\"progetto.Table\""
par DatabaseNetwork.table[0] tableId 0
scalar DatabaseNetwork.table[0] table.totalServed 7274
scalar DatabaseNetwork.table[0] table.totalReads 2231
scalar DatabaseNetwork.table[0] table.totalWrites 5043
scalar DatabaseNetwork.table[0] table.throughput 0.7274
scalar DatabaseNetwork.table[0] table.maxQueueLength 2
scalar DatabaseNetwork.table[0] table.avgQueueLength 1.0019246631839
scalar DatabaseNetwork.table[0] table.avgWaitingTime 0.0034860697471994
scalar DatabaseNetwork.table[0] table.utilization 0.072461924659212
par DatabaseNetwork.table[1] typename "\"progetto.Table\""
par DatabaseNetwork.table[1] tableId 1
scalar DatabaseNetwork.table[1] table.totalServed 15153
scalar DatabaseNetwork.table[1] table.totalReads 4605
scalar DatabaseNetwork.table[1] table.totalWrites 10548
scalar DatabaseNetwork.table[1] table.throughput 1.5153
scalar DatabaseNetwork.table[1] table.maxQueueLength 4
scalar DatabaseNetwork.table[1] table.avgQueueLength 1.0127367517983
scalar DatabaseNetwork.table[1] table.avgWaitingTime 0.0079004187160876
scalar DatabaseNetwork.table[1] table.utilization 0.15037034662757
par DatabaseNetwork.table[2] typename "\"progetto.Table\""
par DatabaseNetwork.table[2] tableId 2
scalar DatabaseNetwork.table[2] table.totalServed 14125
scalar DatabaseNetwork.table[2] table.totalReads 4214
scalar DatabaseNetwork.table[2] table.totalWrites 9911
scalar DatabaseNetwork.table[2] table.throughput 1.4125
scalar DatabaseNetwork.table[2] table.maxQueueLength 4
scalar DatabaseNetwork.table[2] table.avgQueueLength 1.0106902654867
scalar DatabaseNetwork.table[2] table.avgWaitingTime 0.0073533068407939
scalar DatabaseNetwork.table[2] table.utilization 0.14028936668643
par DatabaseNetwork.table[3] typename "\"progetto.Table\""
par DatabaseNetwork.table[3] tableId 3
scalar DatabaseNetwork.table[3] table.totalServed 11715
scalar DatabaseNetwork.table[3] table.totalReads 3443
scalar DatabaseNetwork.table[3] table.totalWrites 8272
scalar DatabaseNetwork.table[3] table.throughput 1.1715
scalar DatabaseNetwork.table[3] table.maxQueueLength 3
scalar DatabaseNetwork.table[3] table.avgQueueLength 1.0058898847631
scalar DatabaseNetwork.table[3] table.avgWaitingTime 0.0058594505076244
scalar DatabaseNetwork.table[3] table.utilization 0.11660095069399
par DatabaseNetwork.table[4] typename "\"progetto.Table\""
par DatabaseNetwork.table[4] tableId 4
scalar DatabaseNetwork.table[4] table.totalServed 9388
scalar DatabaseNetwork.table[4] table.totalReads 2784
scalar DatabaseNetwork.table[4] table.totalWrites 6604
scalar DatabaseNetwork.table[4] table.throughput 0.9388
scalar DatabaseNetwork.table[4] table.maxQueueLength 3
scalar DatabaseNetwork.table[4] table.avgQueueLength 1.00362125892
scalar DatabaseNetwork.table[4] table.avgWaitingTime 0.0045740245599906
scalar DatabaseNetwork.table[4] table.utilization 0.093437214231664
par DatabaseNetwork.table[5] typename "\"progetto.Table\""
par DatabaseNetwork.table[5] tableId 5
scalar DatabaseNetwork.table[5] table.totalServed 7516
scalar DatabaseNetwork.table[5] table.totalReads 2294
scalar DatabaseNetwork.table[5] table.totalWrites 5222
scalar DatabaseNetwork.table[5] table.throughput 0.7516
scalar DatabaseNetwork.table[5] table.maxQueueLength 2
scalar DatabaseNetwork.table[5] table.avgQueueLength 1.0021287919106
scalar DatabaseNetwork.table[5] table.avgWaitingTime 0.0035015325566338
scalar DatabaseNetwork.table[5] table.utilization 0.074933949955952
par DatabaseNetwork.table[6] typename "\"progetto.Table\""
par DatabaseNetwork.table[6] tableId 6
scalar DatabaseNetwork.table[6] table.totalServed 6202
scalar DatabaseNetwork.table[6] table.totalReads 1950
scalar DatabaseNetwork.table[6] table.totalWrites 4252
scalar DatabaseNetwork.table[6] table.throughput 0.6202
scalar DatabaseNetwork.table[6] table.maxQueueLength 2
scalar DatabaseNetwork.table[6] table.avgQueueLength 1.0017736214124
scalar DatabaseNetwork.table[6] table.avgWaitingTime 0.002901608117726
scalar DatabaseNetwork.table[6] table.utilization 0.061787822282993
par DatabaseNetwork.table[7] typename "\"progetto.Table\""
par DatabaseNetwork.table[7] tableId 7
scalar DatabaseNetwork.table[7] table.totalServed 4971
scalar DatabaseNetwork.table[7] table.totalReads 1506
scalar DatabaseNetwork.table[7] table.totalWrites 3465
scalar DatabaseNetwork.table[7] table.throughput 0.4971
scalar DatabaseNetwork.table[7] table.maxQueueLength 2
scalar DatabaseNetwork.table[7] table.avgQueueLength 1.0004023335345
scalar DatabaseNetwork.table[7] table.avgWaitingTime 0.0020477870638434
scalar DatabaseNetwork.table[7] table.utilization 0.049560490096452
par DatabaseNetwork.table[8] typename "\"progetto.Table\""
par DatabaseNetwork.table[8] tableId 8
scalar DatabaseNetwork.table[8] table.totalServed 4188
scalar DatabaseNetwork.table[8] table.totalReads 1237
scalar DatabaseNetwork.table[8] table.totalWrites 2951
scalar DatabaseNetwork.table[8] table.throughput 0.4188
scalar DatabaseNetwork.table[8] table.maxQueueLength 2
scalar DatabaseNetwork.table[8] table.avgQueueLength 1.0004775549188
scalar DatabaseNetwork.table[8] table.avgWaitingTime 0.0017664862269477
scalar DatabaseNetwork.table[8] table.utilization 0.041805122337074
par DatabaseNetwork.table[9] typename "\"progetto.Table\""
par DatabaseNetwork.table[9] tableId 9
scalar DatabaseNetwork.table[9] table.totalServed 3351
scalar DatabaseNetwork.table[9] table.totalReads 1046
scalar DatabaseNetwork.table[9] table.totalWrites 2305
scalar DatabaseNetwork.table[9] table.throughput 0.3351
scalar DatabaseNetwork.table[9] table.maxQueueLength 2
scalar DatabaseNetwork.table[9] table.avgQueueLength 1.0002984183826
scalar DatabaseNetwork.table[9] table.avgWaitingTime 0.0013208639154742
scalar DatabaseNetwork.table[9] table.utilization 0.033455161635884
par DatabaseNetwork.table[10] typename "\"progetto.Table\""
par DatabaseNetwork.table[10] tableId 10
scalar DatabaseNetwork.table[10] table.totalServed 2889
scalar DatabaseNetwork.table[10] table.totalReads 892
scalar DatabaseNetwork.table[10] table.totalWrites 1997
scalar DatabaseNetwork.table[10] table.throughput 0.2889
scalar DatabaseNetwork.table[10] table.maxQueueLength 1
scalar DatabaseNetwork.table[10] table.avgQueueLength 1
scalar DatabaseNetwork.table[10] table.avgWaitingTime 0.0011409601829952
scalar DatabaseNetwork.table[10] table.utilization 0.028839286191875
par DatabaseNetwork.table[11] typename "\"progetto.Table\""
par DatabaseNetwork.table[11] tableId 11
scalar DatabaseNetwork.table[11] table.totalServed 2392
scalar DatabaseNetwork.table[11] table.totalReads 692
scalar DatabaseNetwork.table[11] table.totalWrites 1700
scalar DatabaseNetwork.table[11] table.throughput 0.2392
scalar DatabaseNetwork.table[11] table.maxQueueLength 1
scalar DatabaseNetwork.table[11] table.avgQueueLength 1
scalar DatabaseNetwork.table[11] table.avgWaitingTime 0.00094780668849428
scalar DatabaseNetwork.table[11] table.utilization 0.023895464661191
par DatabaseNetwork.table[12] typename "\"progetto.Table\""
par DatabaseNetwork.table[12] tableId 12
scalar DatabaseNetwork.table[12] table.totalServed 2146
scalar DatabaseNetwork.table[12] table.totalReads 650
scalar DatabaseNetwork.table[12] table.totalWrites 1496
scalar DatabaseNetwork.table[12] table.throughput 0.2146
scalar DatabaseNetwork.table[12] table.maxQueueLength 1
scalar DatabaseNetwork.table[12] table.avgQueueLength 1
scalar DatabaseNetwork.table[12] table.avgWaitingTime 0.0010627136392433
scalar DatabaseNetwork.table[12] table.utilization 0.021425191143334
par DatabaseNetwork.table[13] typename "\"progetto.Table\""
par DatabaseNetwork.table[13] tableId 13
scalar DatabaseNetwork.table[13] table.totalServed 1826
scalar DatabaseNetwork.table[13] table.totalReads 535
scalar DatabaseNetwork.table[13] table.totalWrites 1291
scalar DatabaseNetwork.table[13] table.throughput 0.1826
scalar DatabaseNetwork.table[13] table.maxQueueLength 2
scalar DatabaseNetwork.table[13] table.avgQueueLength 1.000547645126
scalar DatabaseNetwork.table[13] table.avgWaitingTime 0.00074444974794657
scalar DatabaseNetwork.table[13] table.utilization 0.018250254586419
par DatabaseNetwork.table[14] typename "\"progetto.Table\""
par DatabaseNetwork.table[14] tableId 14
scalar DatabaseNetwork.table[14] table.totalServed 1496
scalar DatabaseNetwork.table[14] table.totalReads 457
scalar DatabaseNetwork.table[14] table.totalWrites 1039
scalar DatabaseNetwork.table[14] table.throughput 0.1496
scalar DatabaseNetwork.table[14] table.maxQueueLength 1
scalar DatabaseNetwork.table[14] table.avgQueueLength 1
scalar DatabaseNetwork.table[14] table.avgWaitingTime 0.00030580461994537
scalar DatabaseNetwork.table[14] table.utilization 0.014939718468747
par DatabaseNetwork.table[15] typename "\"progetto.Table\""
par DatabaseNetwork.table[15] tableId 15
scalar DatabaseNetwork.table[15] table.totalServed 1371
scalar DatabaseNetwork.table[15] table.totalReads 430
scalar DatabaseNetwork.table[15] table.totalWrites 941
scalar DatabaseNetwork.table[15] table.throughput 0.1371
scalar DatabaseNetwork.table[15] table.maxQueueLength 1
scalar DatabaseNetwork.table[15] table.avgQueueLength 1
scalar DatabaseNetwork.table[15] table.avgWaitingTime 0.00047789571883352
scalar DatabaseNetwork.table[15] table.utilization 0.013702850633944
par DatabaseNetwork.table[16] typename "\"progetto.Table\""
par DatabaseNetwork.table[16] tableId 16
scalar DatabaseNetwork.table[16] table.totalServed 1170
scalar DatabaseNetwork.table[16] table.totalReads 373
scalar DatabaseNetwork.table[16] table.totalWrites 797
scalar DatabaseNetwork.table[16] table.throughput 0.117
scalar DatabaseNetwork.table[16] table.maxQueueLength 1
scalar DatabaseNetwork.table[16] table.avgQueueLength 1
scalar DatabaseNetwork.table[16] table.avgWaitingTime 0.00057907929579057
scalar DatabaseNetwork.table[16] table.utilization 0.011686069426092
par DatabaseNetwork.table[17] typename "\"progetto.Table\""
par DatabaseNetwork.table[17] tableId 17
scalar DatabaseNetwork.table[17] table.totalServed 1057
scalar DatabaseNetwork.table[17] table.totalReads 335
scalar DatabaseNetwork.table[17] table.totalWrites 722
scalar DatabaseNetwork.table[17] table.throughput 0.1057
scalar DatabaseNetwork.table[17] table.maxQueueLength 1
scalar DatabaseNetwork.table[17] table.avgQueueLength 1
scalar DatabaseNetwork.table[17] table.avgWaitingTime 0.00067571030287419
scalar DatabaseNetwork.table[17] table.utilization 0.010560088791662
par DatabaseNetwork.table[18] typename "\"progetto.Table\""
par DatabaseNetwork.table[18] tableId 18
scalar DatabaseNetwork.table[18] table.totalServed 891
scalar DatabaseNetwork.table[18] table.totalReads 283
scalar DatabaseNetwork.table[18] table.totalWrites 608
scalar DatabaseNetwork.table[18] table.throughput 0.0891
scalar DatabaseNetwork.table[18] table.maxQueueLength 1
scalar DatabaseNetwork.table[18] table.avgQueueLength 1
scalar DatabaseNetwork.table[18] table.avgWaitingTime 0.0001704912128905
scalar DatabaseNetwork.table[18] table.utilization 0.008900022465841
par DatabaseNetwork.table[19] typename "\"progetto.Table\""
par DatabaseNetwork.table[19] tableId 19
scalar DatabaseNetwork.table[19] table.totalServed 815
scalar DatabaseNetwork.table[19] table.totalReads 244
scalar DatabaseNetwork.table[19] table.totalWrites 571
scalar DatabaseNetwork.table[19] table.throughput 0.0815
scalar DatabaseNetwork.table[19] table.maxQueueLength 1
scalar DatabaseNetwork.table[19] table.avgQueueLength 1
scalar DatabaseNetwork.table[19] table.avgWaitingTime 8.5320770665406e-05
scalar DatabaseNetwork.table[19] table.utilization 0.008148015644139
par DatabaseNetwork typename "\"progetto.DatabaseNetwork\""
par DatabaseNetwork numUsers 200
par DatabaseNetwork numTables 20

