version 3
run Uniform-88-20260105-17:15:10-28078
attr configname Uniform
attr datetime 20260105-17:15:10
attr datetimef 20260105-171510
attr experiment Uniform
attr inifile omnetpp.ini
attr iterationvars "$N=150, $p=0.7"
attr iterationvarsd N=150/p=0.7
attr iterationvarsf N=150,p=0.7-
attr measurement "$N=150, $p=0.7"
attr network progetto.DatabaseNetwork
attr processid 28078
attr repetition 3
attr replication #3
attr resultdir results
attr runnumber 88
attr seedset 3
itervar N 150
itervar p 0.7
config description "Uniform distribution - varia N e p"
config *.user[*].tableDistribution "\"uniform\""
config *.numUsers 150
config *.user[*].readProbability 0.7
config network progetto.DatabaseNetwork
config sim-time-limit 10000s
config cpu-time-limit 3600s
config repeat 5
config seed-set 3
config output-vector-file "results/Uniform-$N=150, $p=0.7-3.vec"
config output-scalar-file "results/Uniform-$N=150, $p=0.7-3.sca"
config result-dir results
config **.vector-recording true
config **.scalar-recording true
config *.numTables 20
config *.user[*].lambda 0.05
config *.user[*].serviceTime 0.1s

par DatabaseNetwork.user[0] typename "\"progetto.User\""
par DatabaseNetwork.user[0] userId 0
par DatabaseNetwork.user[0] lambda 0.05
par DatabaseNetwork.user[0] readProbability 0.7
par DatabaseNetwork.user[0] numTables 20
par DatabaseNetwork.user[0] tableDistribution "\"uniform\""
par DatabaseNetwork.user[0] serviceTime 0.1s
attr unit s
par DatabaseNetwork.user[0] lognormalM 0.5
par DatabaseNetwork.user[0] lognormalS 1
scalar DatabaseNetwork.user[0] totalAccesses 472
scalar DatabaseNetwork.user[0] totalReads 343
scalar DatabaseNetwork.user[0] totalWrites 129
scalar DatabaseNetwork.user[0] averageWaitTime 0.10084899524794
scalar DatabaseNetwork.user[0] accessesPerSecond 0.0472
par DatabaseNetwork.user[1] typename "\"progetto.User\""
par DatabaseNetwork.user[1] userId 1
par DatabaseNetwork.user[1] lambda 0.05
par DatabaseNetwork.user[1] readProbability 0.7
par DatabaseNetwork.user[1] numTables 20
par DatabaseNetwork.user[1] tableDistribution "\"uniform\""
par DatabaseNetwork.user[1] serviceTime 0.1s
attr unit s
par DatabaseNetwork.user[1] lognormalM 0.5
par DatabaseNetwork.user[1] lognormalS 1
scalar DatabaseNetwork.user[1] totalAccesses 484
scalar DatabaseNetwork.user[1] totalReads 322
scalar DatabaseNetwork.user[1] totalWrites 162
scalar DatabaseNetwork.user[1] averageWaitTime 0.10107518110132
scalar DatabaseNetwork.user[1] accessesPerSecond 0.0484
par DatabaseNetwork.user[2] typename "\"progetto.User\""
par DatabaseNetwork.user[2] userId 2
par DatabaseNetwork.user[2] lambda 0.05
par DatabaseNetwork.user[2] readProbability 0.7
par DatabaseNetwork.user[2] numTables 20
par DatabaseNetwork.user[2] tableDistribution "\"uniform\""
par DatabaseNetwork.user[2] serviceTime 0.1s
attr unit s
par DatabaseNetwork.user[2] lognormalM 0.5
par DatabaseNetwork.user[2] lognormalS 1
scalar DatabaseNetwork.user[2] totalAccesses 519
scalar DatabaseNetwork.user[2] totalReads 372
scalar DatabaseNetwork.user[2] totalWrites 147
scalar DatabaseNetwork.user[2] averageWaitTime 0.10122125060922
scalar DatabaseNetwork.user[2] accessesPerSecond 0.0519
par DatabaseNetwork.user[3] typename "\"progetto.User\""
par DatabaseNetwork.user[3] userId 3
par DatabaseNetwork.user[3] lambda 0.05
par DatabaseNetwork.user[3] readProbability 0.7
par DatabaseNetwork.user[3] numTables 20
par DatabaseNetwork.user[3] tableDistribution "\"uniform\""
par DatabaseNetwork.user[3] serviceTime 0.1s
attr unit s
par DatabaseNetwork.user[3] lognormalM 0.5
par DatabaseNetwork.user[3] lognormalS 1
scalar DatabaseNetwork.user[3] totalAccesses 499
scalar DatabaseNetwork.user[3] totalReads 357
scalar DatabaseNetwork.user[3] totalWrites 142
scalar DatabaseNetwork.user[3] averageWaitTime 0.1008447346205
scalar DatabaseNetwork.user[3] accessesPerSecond 0.0499
par DatabaseNetwork.user[4] typename "\"progetto.User\""
par DatabaseNetwork.user[4] userId 4
par DatabaseNetwork.user[4] lambda 0.05
par DatabaseNetwork.user[4] readProbability 0.7
par DatabaseNetwork.user[4] numTables 20
par DatabaseNetwork.user[4] tableDistribution "\"uniform\""
par DatabaseNetwork.user[4] serviceTime 0.1s
attr unit s
par DatabaseNetwork.user[4] lognormalM 0.5
par DatabaseNetwork.user[4] lognormalS 1
scalar DatabaseNetwork.user[4] totalAccesses 507
scalar DatabaseNetwork.user[4] totalReads 356
scalar DatabaseNetwork.user[4] totalWrites 151
scalar DatabaseNetwork.user[4] averageWaitTime 0.10069246315489
scalar DatabaseNetwork.user[4] accessesPerSecond 0.0507
par DatabaseNetwork.user[5] typename "\"progetto.User\""
par DatabaseNetwork.user[5] userId 5
par DatabaseNetwork.user[5] lambda 0.05
par DatabaseNetwork.user[5] readProbability 0.7
par DatabaseNetwork.user[5] numTables 20
par DatabaseNetwork.user[5] tableDistribution "\"uniform\""
par DatabaseNetwork.user[5] serviceTime 0.1s
attr unit s
par DatabaseNetwork.user[5] lognormalM 0.5
par DatabaseNetwork.user[5] lognormalS 1
scalar DatabaseNetwork.user[5] totalAccesses 534
scalar DatabaseNetwork.user[5] totalReads 376
scalar DatabaseNetwork.user[5] totalWrites 158
scalar DatabaseNetwork.user[5] averageWaitTime 0.10121558870928
scalar DatabaseNetwork.user[5] accessesPerSecond 0.0534
par DatabaseNetwork.user[6] typename "\"progetto.User\""
par DatabaseNetwork.user[6] userId 6
par DatabaseNetwork.user[6] lambda 0.05
par DatabaseNetwork.user[6] readProbability 0.7
par DatabaseNetwork.user[6] numTables 20
par DatabaseNetwork.user[6] tableDistribution "\"uniform\""
par DatabaseNetwork.user[6] serviceTime 0.1s
attr unit s
par DatabaseNetwork.user[6] lognormalM 0.5
par DatabaseNetwork.user[6] lognormalS 1
scalar DatabaseNetwork.user[6] totalAccesses 458
scalar DatabaseNetwork.user[6] totalReads 324
scalar DatabaseNetwork.user[6] totalWrites 134
scalar DatabaseNetwork.user[6] averageWaitTime 0.10127366579893
scalar DatabaseNetwork.user[6] accessesPerSecond 0.0458
par DatabaseNetwork.user[7] typename "\"progetto.User\""
par DatabaseNetwork.user[7] userId 7
par DatabaseNetwork.user[7] lambda 0.05
par DatabaseNetwork.user[7] readProbability 0.7
par DatabaseNetwork.user[7] numTables 20
par DatabaseNetwork.user[7] tableDistribution "\"uniform\""
par DatabaseNetwork.user[7] serviceTime 0.1s
attr unit s
par DatabaseNetwork.user[7] lognormalM 0.5
par DatabaseNetwork.user[7] lognormalS 1
scalar DatabaseNetwork.user[7] totalAccesses 518
scalar DatabaseNetwork.user[7] totalReads 353
scalar DatabaseNetwork.user[7] totalWrites 165
scalar DatabaseNetwork.user[7] averageWaitTime 0.10138603197449
scalar DatabaseNetwork.user[7] accessesPerSecond 0.0518
par DatabaseNetwork.user[8] typename "\"progetto.User\""
par DatabaseNetwork.user[8] userId 8
par DatabaseNetwork.user[8] lambda 0.05
par DatabaseNetwork.user[8] readProbability 0.7
par DatabaseNetwork.user[8] numTables 20
par DatabaseNetwork.user[8] tableDistribution "\"uniform\""
par DatabaseNetwork.user[8] serviceTime 0.1s
attr unit s
par DatabaseNetwork.user[8] lognormalM 0.5
par DatabaseNetwork.user[8] lognormalS 1
scalar DatabaseNetwork.user[8] totalAccesses 500
scalar DatabaseNetwork.user[8] totalReads 338
scalar DatabaseNetwork.user[8] totalWrites 162
scalar DatabaseNetwork.user[8] averageWaitTime 0.10121619917118
scalar DatabaseNetwork.user[8] accessesPerSecond 0.05
par DatabaseNetwork.user[9] typename "\"progetto.User\""
par DatabaseNetwork.user[9] userId 9
par DatabaseNetwork.user[9] lambda 0.05
par DatabaseNetwork.user[9] readProbability 0.7
par DatabaseNetwork.user[9] numTables 20
par DatabaseNetwork.user[9] tableDistribution "\"uniform\""
par DatabaseNetwork.user[9] serviceTime 0.1s
attr unit s
par DatabaseNetwork.user[9] lognormalM 0.5
par DatabaseNetwork.user[9] lognormalS 1
scalar DatabaseNetwork.user[9] totalAccesses 491
scalar DatabaseNetwork.user[9] totalReads 352
scalar DatabaseNetwork.user[9] totalWrites 139
scalar DatabaseNetwork.user[9] averageWaitTime 0.10068426757884
scalar DatabaseNetwork.user[9] accessesPerSecond 0.0491
par DatabaseNetwork.user[10] typename "\"progetto.User\""
par DatabaseNetwork.user[10] userId 10
par DatabaseNetwork.user[10] lambda 0.05
par DatabaseNetwork.user[10] readProbability 0.7
par DatabaseNetwork.user[10] numTables 20
par DatabaseNetwork.user[10] tableDistribution "\"uniform\""
par DatabaseNetwork.user[10] serviceTime 0.1s
attr unit s
par DatabaseNetwork.user[10] lognormalM 0.5
par DatabaseNetwork.user[10] lognormalS 1
scalar DatabaseNetwork.user[10] totalAccesses 509
scalar DatabaseNetwork.user[10] totalReads 348
scalar DatabaseNetwork.user[10] totalWrites 161
scalar DatabaseNetwork.user[10] averageWaitTime 0.10071605940802
scalar DatabaseNetwork.user[10] accessesPerSecond 0.0509
par DatabaseNetwork.user[11] typename "\"progetto.User\""
par DatabaseNetwork.user[11] userId 11
par DatabaseNetwork.user[11] lambda 0.05
par DatabaseNetwork.user[11] readProbability 0.7
par DatabaseNetwork.user[11] numTables 20
par DatabaseNetwork.user[11] tableDistribution "\"uniform\""
par DatabaseNetwork.user[11] serviceTime 0.1s
attr unit s
par DatabaseNetwork.user[11] lognormalM 0.5
par DatabaseNetwork.user[11] lognormalS 1
scalar DatabaseNetwork.user[11] totalAccesses 463
scalar DatabaseNetwork.user[11] totalReads 323
scalar DatabaseNetwork.user[11] totalWrites 140
scalar DatabaseNetwork.user[11] averageWaitTime 0.10054012251492
scalar DatabaseNetwork.user[11] accessesPerSecond 0.0463
par DatabaseNetwork.user[12] typename "\"progetto.User\""
par DatabaseNetwork.user[12] userId 12
par DatabaseNetwork.user[12] lambda 0.05
par DatabaseNetwork.user[12] readProbability 0.7
par DatabaseNetwork.user[12] numTables 20
par DatabaseNetwork.user[12] tableDistribution "\"uniform\""
par DatabaseNetwork.user[12] serviceTime 0.1s
attr unit s
par DatabaseNetwork.user[12] lognormalM 0.5
par DatabaseNetwork.user[12] lognormalS 1
scalar DatabaseNetwork.user[12] totalAccesses 488
scalar DatabaseNetwork.user[12] totalReads 358
scalar DatabaseNetwork.user[12] totalWrites 130
scalar DatabaseNetwork.user[12] averageWaitTime 0.1016631230855
scalar DatabaseNetwork.user[12] accessesPerSecond 0.0488
par DatabaseNetwork.user[13] typename "\"progetto.User\""
par DatabaseNetwork.user[13] userId 13
par DatabaseNetwork.user[13] lambda 0.05
par DatabaseNetwork.user[13] readProbability 0.7
par DatabaseNetwork.user[13] numTables 20
par DatabaseNetwork.user[13] tableDistribution "\"uniform\""
par DatabaseNetwork.user[13] serviceTime 0.1s
attr unit s
par DatabaseNetwork.user[13] lognormalM 0.5
par DatabaseNetwork.user[13] lognormalS 1
scalar DatabaseNetwork.user[13] totalAccesses 483
scalar DatabaseNetwork.user[13] totalReads 332
scalar DatabaseNetwork.user[13] totalWrites 151
scalar DatabaseNetwork.user[13] averageWaitTime 0.10151074194956
scalar DatabaseNetwork.user[13] accessesPerSecond 0.0483
par DatabaseNetwork.user[14] typename "\"progetto.User\""
par DatabaseNetwork.user[14] userId 14
par DatabaseNetwork.user[14] lambda 0.05
par DatabaseNetwork.user[14] readProbability 0.7
par DatabaseNetwork.user[14] numTables 20
par DatabaseNetwork.user[14] tableDistribution "\"uniform\""
par DatabaseNetwork.user[14] serviceTime 0.1s
attr unit s
par DatabaseNetwork.user[14] lognormalM 0.5
par DatabaseNetwork.user[14] lognormalS 1
scalar DatabaseNetwork.user[14] totalAccesses 512
scalar DatabaseNetwork.user[14] totalReads 365
scalar DatabaseNetwork.user[14] totalWrites 147
scalar DatabaseNetwork.user[14] averageWaitTime 0.10024348235704
scalar DatabaseNetwork.user[14] accessesPerSecond 0.0512
par DatabaseNetwork.user[15] typename "\"progetto.User\""
par DatabaseNetwork.user[15] userId 15
par DatabaseNetwork.user[15] lambda 0.05
par DatabaseNetwork.user[15] readProbability 0.7
par DatabaseNetwork.user[15] numTables 20
par DatabaseNetwork.user[15] tableDistribution "\"uniform\""
par DatabaseNetwork.user[15] serviceTime 0.1s
attr unit s
par DatabaseNetwork.user[15] lognormalM 0.5
par DatabaseNetwork.user[15] lognormalS 1
scalar DatabaseNetwork.user[15] totalAccesses 500
scalar DatabaseNetwork.user[15] totalReads 349
scalar DatabaseNetwork.user[15] totalWrites 151
scalar DatabaseNetwork.user[15] averageWaitTime 0.10053292980275
scalar DatabaseNetwork.user[15] accessesPerSecond 0.05
par DatabaseNetwork.user[16] typename "\"progetto.User\""
par DatabaseNetwork.user[16] userId 16
par DatabaseNetwork.user[16] lambda 0.05
par DatabaseNetwork.user[16] readProbability 0.7
par DatabaseNetwork.user[16] numTables 20
par DatabaseNetwork.user[16] tableDistribution "\"uniform\""
par DatabaseNetwork.user[16] serviceTime 0.1s
attr unit s
par DatabaseNetwork.user[16] lognormalM 0.5
par DatabaseNetwork.user[16] lognormalS 1
scalar DatabaseNetwork.user[16] totalAccesses 493
scalar DatabaseNetwork.user[16] totalReads 355
scalar DatabaseNetwork.user[16] totalWrites 138
scalar DatabaseNetwork.user[16] averageWaitTime 0.10094011788317
scalar DatabaseNetwork.user[16] accessesPerSecond 0.0493
par DatabaseNetwork.user[17] typename "\"progetto.User\""
par DatabaseNetwork.user[17] userId 17
par DatabaseNetwork.user[17] lambda 0.05
par DatabaseNetwork.user[17] readProbability 0.7
par DatabaseNetwork.user[17] numTables 20
par DatabaseNetwork.user[17] tableDistribution "\"uniform\""
par DatabaseNetwork.user[17] serviceTime 0.1s
attr unit s
par DatabaseNetwork.user[17] lognormalM 0.5
par DatabaseNetwork.user[17] lognormalS 1
scalar DatabaseNetwork.user[17] totalAccesses 468
scalar DatabaseNetwork.user[17] totalReads 309
scalar DatabaseNetwork.user[17] totalWrites 159
scalar DatabaseNetwork.user[17] averageWaitTime 0.10085163336912
scalar DatabaseNetwork.user[17] accessesPerSecond 0.0468
par DatabaseNetwork.user[18] typename "\"progetto.User\""
par DatabaseNetwork.user[18] userId 18
par DatabaseNetwork.user[18] lambda 0.05
par DatabaseNetwork.user[18] readProbability 0.7
par DatabaseNetwork.user[18] numTables 20
par DatabaseNetwork.user[18] tableDistribution "\"uniform\""
par DatabaseNetwork.user[18] serviceTime 0.1s
attr unit s
par DatabaseNetwork.user[18] lognormalM 0.5
par DatabaseNetwork.user[18] lognormalS 1
scalar DatabaseNetwork.user[18] totalAccesses 489
scalar DatabaseNetwork.user[18] totalReads 345
scalar DatabaseNetwork.user[18] totalWrites 144
scalar DatabaseNetwork.user[18] averageWaitTime 0.10062142867785
scalar DatabaseNetwork.user[18] accessesPerSecond 0.0489
par DatabaseNetwork.user[19] typename "\"progetto.User\""
par DatabaseNetwork.user[19] userId 19
par DatabaseNetwork.user[19] lambda 0.05
par DatabaseNetwork.user[19] readProbability 0.7
par DatabaseNetwork.user[19] numTables 20
par DatabaseNetwork.user[19] tableDistribution "\"uniform\""
par DatabaseNetwork.user[19] serviceTime 0.1s
attr unit s
par DatabaseNetwork.user[19] lognormalM 0.5
par DatabaseNetwork.user[19] lognormalS 1
scalar DatabaseNetwork.user[19] totalAccesses 452
scalar DatabaseNetwork.user[19] totalReads 308
scalar DatabaseNetwork.user[19] totalWrites 144
scalar DatabaseNetwork.user[19] averageWaitTime 0.10141890171911
scalar DatabaseNetwork.user[19] accessesPerSecond 0.0452
par DatabaseNetwork.user[20] typename "\"progetto.User\""
par DatabaseNetwork.user[20] userId 20
par DatabaseNetwork.user[20] lambda 0.05
par DatabaseNetwork.user[20] readProbability 0.7
par DatabaseNetwork.user[20] numTables 20
par DatabaseNetwork.user[20] tableDistribution "\"uniform\""
par DatabaseNetwork.user[20] serviceTime 0.1s
attr unit s
par DatabaseNetwork.user[20] lognormalM 0.5
par DatabaseNetwork.user[20] lognormalS 1
scalar DatabaseNetwork.user[20] totalAccesses 521
scalar DatabaseNetwork.user[20] totalReads 362
scalar DatabaseNetwork.user[20] totalWrites 159
scalar DatabaseNetwork.user[20] averageWaitTime 0.10114698370178
scalar DatabaseNetwork.user[20] accessesPerSecond 0.0521
par DatabaseNetwork.user[21] typename "\"progetto.User\""
par DatabaseNetwork.user[21] userId 21
par DatabaseNetwork.user[21] lambda 0.05
par DatabaseNetwork.user[21] readProbability 0.7
par DatabaseNetwork.user[21] numTables 20
par DatabaseNetwork.user[21] tableDistribution "\"uniform\""
par DatabaseNetwork.user[21] serviceTime 0.1s
attr unit s
par DatabaseNetwork.user[21] lognormalM 0.5
par DatabaseNetwork.user[21] lognormalS 1
scalar DatabaseNetwork.user[21] totalAccesses 488
scalar DatabaseNetwork.user[21] totalReads 336
scalar DatabaseNetwork.user[21] totalWrites 152
scalar DatabaseNetwork.user[21] averageWaitTime 0.10083840290061
scalar DatabaseNetwork.user[21] accessesPerSecond 0.0488
par DatabaseNetwork.user[22] typename "\"progetto.User\""
par DatabaseNetwork.user[22] userId 22
par DatabaseNetwork.user[22] lambda 0.05
par DatabaseNetwork.user[22] readProbability 0.7
par DatabaseNetwork.user[22] numTables 20
par DatabaseNetwork.user[22] tableDistribution "\"uniform\""
par DatabaseNetwork.user[22] serviceTime 0.1s
attr unit s
par DatabaseNetwork.user[22] lognormalM 0.5
par DatabaseNetwork.user[22] lognormalS 1
scalar DatabaseNetwork.user[22] totalAccesses 528
scalar DatabaseNetwork.user[22] totalReads 359
scalar DatabaseNetwork.user[22] totalWrites 169
scalar DatabaseNetwork.user[22] averageWaitTime 0.10132986924634
scalar DatabaseNetwork.user[22] accessesPerSecond 0.0528
par DatabaseNetwork.user[23] typename "\"progetto.User\""
par DatabaseNetwork.user[23] userId 23
par DatabaseNetwork.user[23] lambda 0.05
par DatabaseNetwork.user[23] readProbability 0.7
par DatabaseNetwork.user[23] numTables 20
par DatabaseNetwork.user[23] tableDistribution "\"uniform\""
par DatabaseNetwork.user[23] serviceTime 0.1s
attr unit s
par DatabaseNetwork.user[23] lognormalM 0.5
par DatabaseNetwork.user[23] lognormalS 1
scalar DatabaseNetwork.user[23] totalAccesses 490
scalar DatabaseNetwork.user[23] totalReads 345
scalar DatabaseNetwork.user[23] totalWrites 145
scalar DatabaseNetwork.user[23] averageWaitTime 0.10084905813118
scalar DatabaseNetwork.user[23] accessesPerSecond 0.049
par DatabaseNetwork.user[24] typename "\"progetto.User\""
par DatabaseNetwork.user[24] userId 24
par DatabaseNetwork.user[24] lambda 0.05
par DatabaseNetwork.user[24] readProbability 0.7
par DatabaseNetwork.user[24] numTables 20
par DatabaseNetwork.user[24] tableDistribution "\"uniform\""
par DatabaseNetwork.user[24] serviceTime 0.1s
attr unit s
par DatabaseNetwork.user[24] lognormalM 0.5
par DatabaseNetwork.user[24] lognormalS 1
scalar DatabaseNetwork.user[24] totalAccesses 493
scalar DatabaseNetwork.user[24] totalReads 335
scalar DatabaseNetwork.user[24] totalWrites 158
scalar DatabaseNetwork.user[24] averageWaitTime 0.10104289182728
scalar DatabaseNetwork.user[24] accessesPerSecond 0.0493
par DatabaseNetwork.user[25] typename "\"progetto.User\""
par DatabaseNetwork.user[25] userId 25
par DatabaseNetwork.user[25] lambda 0.05
par DatabaseNetwork.user[25] readProbability 0.7
par DatabaseNetwork.user[25] numTables 20
par DatabaseNetwork.user[25] tableDistribution "\"uniform\""
par DatabaseNetwork.user[25] serviceTime 0.1s
attr unit s
par DatabaseNetwork.user[25] lognormalM 0.5
par DatabaseNetwork.user[25] lognormalS 1
scalar DatabaseNetwork.user[25] totalAccesses 496
scalar DatabaseNetwork.user[25] totalReads 341
scalar DatabaseNetwork.user[25] totalWrites 155
scalar DatabaseNetwork.user[25] averageWaitTime 0.10125199202825
scalar DatabaseNetwork.user[25] accessesPerSecond 0.0496
par DatabaseNetwork.user[26] typename "\"progetto.User\""
par DatabaseNetwork.user[26] userId 26
par DatabaseNetwork.user[26] lambda 0.05
par DatabaseNetwork.user[26] readProbability 0.7
par DatabaseNetwork.user[26] numTables 20
par DatabaseNetwork.user[26] tableDistribution "\"uniform\""
par DatabaseNetwork.user[26] serviceTime 0.1s
attr unit s
par DatabaseNetwork.user[26] lognormalM 0.5
par DatabaseNetwork.user[26] lognormalS 1
scalar DatabaseNetwork.user[26] totalAccesses 475
scalar DatabaseNetwork.user[26] totalReads 319
scalar DatabaseNetwork.user[26] totalWrites 156
scalar DatabaseNetwork.user[26] averageWaitTime 0.10137990710938
scalar DatabaseNetwork.user[26] accessesPerSecond 0.0475
par DatabaseNetwork.user[27] typename "\"progetto.User\""
par DatabaseNetwork.user[27] userId 27
par DatabaseNetwork.user[27] lambda 0.05
par DatabaseNetwork.user[27] readProbability 0.7
par DatabaseNetwork.user[27] numTables 20
par DatabaseNetwork.user[27] tableDistribution "\"uniform\""
par DatabaseNetwork.user[27] serviceTime 0.1s
attr unit s
par DatabaseNetwork.user[27] lognormalM 0.5
par DatabaseNetwork.user[27] lognormalS 1
scalar DatabaseNetwork.user[27] totalAccesses 476
scalar DatabaseNetwork.user[27] totalReads 324
scalar DatabaseNetwork.user[27] totalWrites 152
scalar DatabaseNetwork.user[27] averageWaitTime 0.10081976753284
scalar DatabaseNetwork.user[27] accessesPerSecond 0.0476
par DatabaseNetwork.user[28] typename "\"progetto.User\""
par DatabaseNetwork.user[28] userId 28
par DatabaseNetwork.user[28] lambda 0.05
par DatabaseNetwork.user[28] readProbability 0.7
par DatabaseNetwork.user[28] numTables 20
par DatabaseNetwork.user[28] tableDistribution "\"uniform\""
par DatabaseNetwork.user[28] serviceTime 0.1s
attr unit s
par DatabaseNetwork.user[28] lognormalM 0.5
par DatabaseNetwork.user[28] lognormalS 1
scalar DatabaseNetwork.user[28] totalAccesses 472
scalar DatabaseNetwork.user[28] totalReads 340
scalar DatabaseNetwork.user[28] totalWrites 132
scalar DatabaseNetwork.user[28] averageWaitTime 0.10128400444248
scalar DatabaseNetwork.user[28] accessesPerSecond 0.0472
par DatabaseNetwork.user[29] typename "\"progetto.User\""
par DatabaseNetwork.user[29] userId 29
par DatabaseNetwork.user[29] lambda 0.05
par DatabaseNetwork.user[29] readProbability 0.7
par DatabaseNetwork.user[29] numTables 20
par DatabaseNetwork.user[29] tableDistribution "\"uniform\""
par DatabaseNetwork.user[29] serviceTime 0.1s
attr unit s
par DatabaseNetwork.user[29] lognormalM 0.5
par DatabaseNetwork.user[29] lognormalS 1
scalar DatabaseNetwork.user[29] totalAccesses 545
scalar DatabaseNetwork.user[29] totalReads 380
scalar DatabaseNetwork.user[29] totalWrites 165
scalar DatabaseNetwork.user[29] averageWaitTime 0.10121650255629
scalar DatabaseNetwork.user[29] accessesPerSecond 0.0545
par DatabaseNetwork.user[30] typename "\"progetto.User\""
par DatabaseNetwork.user[30] userId 30
par DatabaseNetwork.user[30] lambda 0.05
par DatabaseNetwork.user[30] readProbability 0.7
par DatabaseNetwork.user[30] numTables 20
par DatabaseNetwork.user[30] tableDistribution "\"uniform\""
par DatabaseNetwork.user[30] serviceTime 0.1s
attr unit s
par DatabaseNetwork.user[30] lognormalM 0.5
par DatabaseNetwork.user[30] lognormalS 1
scalar DatabaseNetwork.user[30] totalAccesses 483
scalar DatabaseNetwork.user[30] totalReads 333
scalar DatabaseNetwork.user[30] totalWrites 150
scalar DatabaseNetwork.user[30] averageWaitTime 0.10132353516244
scalar DatabaseNetwork.user[30] accessesPerSecond 0.0483
par DatabaseNetwork.user[31] typename "\"progetto.User\""
par DatabaseNetwork.user[31] userId 31
par DatabaseNetwork.user[31] lambda 0.05
par DatabaseNetwork.user[31] readProbability 0.7
par DatabaseNetwork.user[31] numTables 20
par DatabaseNetwork.user[31] tableDistribution "\"uniform\""
par DatabaseNetwork.user[31] serviceTime 0.1s
attr unit s
par DatabaseNetwork.user[31] lognormalM 0.5
par DatabaseNetwork.user[31] lognormalS 1
scalar DatabaseNetwork.user[31] totalAccesses 528
scalar DatabaseNetwork.user[31] totalReads 379
scalar DatabaseNetwork.user[31] totalWrites 149
scalar DatabaseNetwork.user[31] averageWaitTime 0.100420277286
scalar DatabaseNetwork.user[31] accessesPerSecond 0.0528
par DatabaseNetwork.user[32] typename "\"progetto.User\""
par DatabaseNetwork.user[32] userId 32
par DatabaseNetwork.user[32] lambda 0.05
par DatabaseNetwork.user[32] readProbability 0.7
par DatabaseNetwork.user[32] numTables 20
par DatabaseNetwork.user[32] tableDistribution "\"uniform\""
par DatabaseNetwork.user[32] serviceTime 0.1s
attr unit s
par DatabaseNetwork.user[32] lognormalM 0.5
par DatabaseNetwork.user[32] lognormalS 1
scalar DatabaseNetwork.user[32] totalAccesses 474
scalar DatabaseNetwork.user[32] totalReads 320
scalar DatabaseNetwork.user[32] totalWrites 154
scalar DatabaseNetwork.user[32] averageWaitTime 0.10106788362578
scalar DatabaseNetwork.user[32] accessesPerSecond 0.0474
par DatabaseNetwork.user[33] typename "\"progetto.User\""
par DatabaseNetwork.user[33] userId 33
par DatabaseNetwork.user[33] lambda 0.05
par DatabaseNetwork.user[33] readProbability 0.7
par DatabaseNetwork.user[33] numTables 20
par DatabaseNetwork.user[33] tableDistribution "\"uniform\""
par DatabaseNetwork.user[33] serviceTime 0.1s
attr unit s
par DatabaseNetwork.user[33] lognormalM 0.5
par DatabaseNetwork.user[33] lognormalS 1
scalar DatabaseNetwork.user[33] totalAccesses 502
scalar DatabaseNetwork.user[33] totalReads 343
scalar DatabaseNetwork.user[33] totalWrites 159
scalar DatabaseNetwork.user[33] averageWaitTime 0.10115702972664
scalar DatabaseNetwork.user[33] accessesPerSecond 0.0502
par DatabaseNetwork.user[34] typename "\"progetto.User\""
par DatabaseNetwork.user[34] userId 34
par DatabaseNetwork.user[34] lambda 0.05
par DatabaseNetwork.user[34] readProbability 0.7
par DatabaseNetwork.user[34] numTables 20
par DatabaseNetwork.user[34] tableDistribution "\"uniform\""
par DatabaseNetwork.user[34] serviceTime 0.1s
attr unit s
par DatabaseNetwork.user[34] lognormalM 0.5
par DatabaseNetwork.user[34] lognormalS 1
scalar DatabaseNetwork.user[34] totalAccesses 483
scalar DatabaseNetwork.user[34] totalReads 331
scalar DatabaseNetwork.user[34] totalWrites 152
scalar DatabaseNetwork.user[34] averageWaitTime 0.10044644424327
scalar DatabaseNetwork.user[34] accessesPerSecond 0.0483
par DatabaseNetwork.user[35] typename "\"progetto.User\""
par DatabaseNetwork.user[35] userId 35
par DatabaseNetwork.user[35] lambda 0.05
par DatabaseNetwork.user[35] readProbability 0.7
par DatabaseNetwork.user[35] numTables 20
par DatabaseNetwork.user[35] tableDistribution "\"uniform\""
par DatabaseNetwork.user[35] serviceTime 0.1s
attr unit s
par DatabaseNetwork.user[35] lognormalM 0.5
par DatabaseNetwork.user[35] lognormalS 1
scalar DatabaseNetwork.user[35] totalAccesses 502
scalar DatabaseNetwork.user[35] totalReads 355
scalar DatabaseNetwork.user[35] totalWrites 147
scalar DatabaseNetwork.user[35] averageWaitTime 0.10059372304899
scalar DatabaseNetwork.user[35] accessesPerSecond 0.0502
par DatabaseNetwork.user[36] typename "\"progetto.User\""
par DatabaseNetwork.user[36] userId 36
par DatabaseNetwork.user[36] lambda 0.05
par DatabaseNetwork.user[36] readProbability 0.7
par DatabaseNetwork.user[36] numTables 20
par DatabaseNetwork.user[36] tableDistribution "\"uniform\""
par DatabaseNetwork.user[36] serviceTime 0.1s
attr unit s
par DatabaseNetwork.user[36] lognormalM 0.5
par DatabaseNetwork.user[36] lognormalS 1
scalar DatabaseNetwork.user[36] totalAccesses 499
scalar DatabaseNetwork.user[36] totalReads 358
scalar DatabaseNetwork.user[36] totalWrites 141
scalar DatabaseNetwork.user[36] averageWaitTime 0.10122816158076
scalar DatabaseNetwork.user[36] accessesPerSecond 0.0499
par DatabaseNetwork.user[37] typename "\"progetto.User\""
par DatabaseNetwork.user[37] userId 37
par DatabaseNetwork.user[37] lambda 0.05
par DatabaseNetwork.user[37] readProbability 0.7
par DatabaseNetwork.user[37] numTables 20
par DatabaseNetwork.user[37] tableDistribution "\"uniform\""
par DatabaseNetwork.user[37] serviceTime 0.1s
attr unit s
par DatabaseNetwork.user[37] lognormalM 0.5
par DatabaseNetwork.user[37] lognormalS 1
scalar DatabaseNetwork.user[37] totalAccesses 491
scalar DatabaseNetwork.user[37] totalReads 341
scalar DatabaseNetwork.user[37] totalWrites 150
scalar DatabaseNetwork.user[37] averageWaitTime 0.10076800501555
scalar DatabaseNetwork.user[37] accessesPerSecond 0.0491
par DatabaseNetwork.user[38] typename "\"progetto.User\""
par DatabaseNetwork.user[38] userId 38
par DatabaseNetwork.user[38] lambda 0.05
par DatabaseNetwork.user[38] readProbability 0.7
par DatabaseNetwork.user[38] numTables 20
par DatabaseNetwork.user[38] tableDistribution "\"uniform\""
par DatabaseNetwork.user[38] serviceTime 0.1s
attr unit s
par DatabaseNetwork.user[38] lognormalM 0.5
par DatabaseNetwork.user[38] lognormalS 1
scalar DatabaseNetwork.user[38] totalAccesses 488
scalar DatabaseNetwork.user[38] totalReads 335
scalar DatabaseNetwork.user[38] totalWrites 153
scalar DatabaseNetwork.user[38] averageWaitTime 0.10009887366394
scalar DatabaseNetwork.user[38] accessesPerSecond 0.0488
par DatabaseNetwork.user[39] typename "\"progetto.User\""
par DatabaseNetwork.user[39] userId 39
par DatabaseNetwork.user[39] lambda 0.05
par DatabaseNetwork.user[39] readProbability 0.7
par DatabaseNetwork.user[39] numTables 20
par DatabaseNetwork.user[39] tableDistribution "\"uniform\""
par DatabaseNetwork.user[39] serviceTime 0.1s
attr unit s
par DatabaseNetwork.user[39] lognormalM 0.5
par DatabaseNetwork.user[39] lognormalS 1
scalar DatabaseNetwork.user[39] totalAccesses 514
scalar DatabaseNetwork.user[39] totalReads 356
scalar DatabaseNetwork.user[39] totalWrites 158
scalar DatabaseNetwork.user[39] averageWaitTime 0.10132005891622
scalar DatabaseNetwork.user[39] accessesPerSecond 0.0514
par DatabaseNetwork.user[40] typename "\"progetto.User\""
par DatabaseNetwork.user[40] userId 40
par DatabaseNetwork.user[40] lambda 0.05
par DatabaseNetwork.user[40] readProbability 0.7
par DatabaseNetwork.user[40] numTables 20
par DatabaseNetwork.user[40] tableDistribution "\"uniform\""
par DatabaseNetwork.user[40] serviceTime 0.1s
attr unit s
par DatabaseNetwork.user[40] lognormalM 0.5
par DatabaseNetwork.user[40] lognormalS 1
scalar DatabaseNetwork.user[40] totalAccesses 499
scalar DatabaseNetwork.user[40] totalReads 358
scalar DatabaseNetwork.user[40] totalWrites 141
scalar DatabaseNetwork.user[40] averageWaitTime 0.10116738417327
scalar DatabaseNetwork.user[40] accessesPerSecond 0.0499
par DatabaseNetwork.user[41] typename "\"progetto.User\""
par DatabaseNetwork.user[41] userId 41
par DatabaseNetwork.user[41] lambda 0.05
par DatabaseNetwork.user[41] readProbability 0.7
par DatabaseNetwork.user[41] numTables 20
par DatabaseNetwork.user[41] tableDistribution "\"uniform\""
par DatabaseNetwork.user[41] serviceTime 0.1s
attr unit s
par DatabaseNetwork.user[41] lognormalM 0.5
par DatabaseNetwork.user[41] lognormalS 1
scalar DatabaseNetwork.user[41] totalAccesses 509
scalar DatabaseNetwork.user[41] totalReads 344
scalar DatabaseNetwork.user[41] totalWrites 165
scalar DatabaseNetwork.user[41] averageWaitTime 0.10058538775959
scalar DatabaseNetwork.user[41] accessesPerSecond 0.0509
par DatabaseNetwork.user[42] typename "\"progetto.User\""
par DatabaseNetwork.user[42] userId 42
par DatabaseNetwork.user[42] lambda 0.05
par DatabaseNetwork.user[42] readProbability 0.7
par DatabaseNetwork.user[42] numTables 20
par DatabaseNetwork.user[42] tableDistribution "\"uniform\""
par DatabaseNetwork.user[42] serviceTime 0.1s
attr unit s
par DatabaseNetwork.user[42] lognormalM 0.5
par DatabaseNetwork.user[42] lognormalS 1
scalar DatabaseNetwork.user[42] totalAccesses 483
scalar DatabaseNetwork.user[42] totalReads 351
scalar DatabaseNetwork.user[42] totalWrites 132
scalar DatabaseNetwork.user[42] averageWaitTime 0.10056262976689
scalar DatabaseNetwork.user[42] accessesPerSecond 0.0483
par DatabaseNetwork.user[43] typename "\"progetto.User\""
par DatabaseNetwork.user[43] userId 43
par DatabaseNetwork.user[43] lambda 0.05
par DatabaseNetwork.user[43] readProbability 0.7
par DatabaseNetwork.user[43] numTables 20
par DatabaseNetwork.user[43] tableDistribution "\"uniform\""
par DatabaseNetwork.user[43] serviceTime 0.1s
attr unit s
par DatabaseNetwork.user[43] lognormalM 0.5
par DatabaseNetwork.user[43] lognormalS 1
scalar DatabaseNetwork.user[43] totalAccesses 548
scalar DatabaseNetwork.user[43] totalReads 358
scalar DatabaseNetwork.user[43] totalWrites 190
scalar DatabaseNetwork.user[43] averageWaitTime 0.10114204779052
scalar DatabaseNetwork.user[43] accessesPerSecond 0.0548
par DatabaseNetwork.user[44] typename "\"progetto.User\""
par DatabaseNetwork.user[44] userId 44
par DatabaseNetwork.user[44] lambda 0.05
par DatabaseNetwork.user[44] readProbability 0.7
par DatabaseNetwork.user[44] numTables 20
par DatabaseNetwork.user[44] tableDistribution "\"uniform\""
par DatabaseNetwork.user[44] serviceTime 0.1s
attr unit s
par DatabaseNetwork.user[44] lognormalM 0.5
par DatabaseNetwork.user[44] lognormalS 1
scalar DatabaseNetwork.user[44] totalAccesses 534
scalar DatabaseNetwork.user[44] totalReads 386
scalar DatabaseNetwork.user[44] totalWrites 148
scalar DatabaseNetwork.user[44] averageWaitTime 0.10086539741898
scalar DatabaseNetwork.user[44] accessesPerSecond 0.0534
par DatabaseNetwork.user[45] typename "\"progetto.User\""
par DatabaseNetwork.user[45] userId 45
par DatabaseNetwork.user[45] lambda 0.05
par DatabaseNetwork.user[45] readProbability 0.7
par DatabaseNetwork.user[45] numTables 20
par DatabaseNetwork.user[45] tableDistribution "\"uniform\""
par DatabaseNetwork.user[45] serviceTime 0.1s
attr unit s
par DatabaseNetwork.user[45] lognormalM 0.5
par DatabaseNetwork.user[45] lognormalS 1
scalar DatabaseNetwork.user[45] totalAccesses 501
scalar DatabaseNetwork.user[45] totalReads 332
scalar DatabaseNetwork.user[45] totalWrites 169
scalar DatabaseNetwork.user[45] averageWaitTime 0.1011368677912
scalar DatabaseNetwork.user[45] accessesPerSecond 0.0501
par DatabaseNetwork.user[46] typename "\"progetto.User\""
par DatabaseNetwork.user[46] userId 46
par DatabaseNetwork.user[46] lambda 0.05
par DatabaseNetwork.user[46] readProbability 0.7
par DatabaseNetwork.user[46] numTables 20
par DatabaseNetwork.user[46] tableDistribution "\"uniform\""
par DatabaseNetwork.user[46] serviceTime 0.1s
attr unit s
par DatabaseNetwork.user[46] lognormalM 0.5
par DatabaseNetwork.user[46] lognormalS 1
scalar DatabaseNetwork.user[46] totalAccesses 493
scalar DatabaseNetwork.user[46] totalReads 372
scalar DatabaseNetwork.user[46] totalWrites 121
scalar DatabaseNetwork.user[46] averageWaitTime 0.10081949294449
scalar DatabaseNetwork.user[46] accessesPerSecond 0.0493
par DatabaseNetwork.user[47] typename "\"progetto.User\""
par DatabaseNetwork.user[47] userId 47
par DatabaseNetwork.user[47] lambda 0.05
par DatabaseNetwork.user[47] readProbability 0.7
par DatabaseNetwork.user[47] numTables 20
par DatabaseNetwork.user[47] tableDistribution "\"uniform\""
par DatabaseNetwork.user[47] serviceTime 0.1s
attr unit s
par DatabaseNetwork.user[47] lognormalM 0.5
par DatabaseNetwork.user[47] lognormalS 1
scalar DatabaseNetwork.user[47] totalAccesses 511
scalar DatabaseNetwork.user[47] totalReads 367
scalar DatabaseNetwork.user[47] totalWrites 144
scalar DatabaseNetwork.user[47] averageWaitTime 0.10032895181401
scalar DatabaseNetwork.user[47] accessesPerSecond 0.0511
par DatabaseNetwork.user[48] typename "\"progetto.User\""
par DatabaseNetwork.user[48] userId 48
par DatabaseNetwork.user[48] lambda 0.05
par DatabaseNetwork.user[48] readProbability 0.7
par DatabaseNetwork.user[48] numTables 20
par DatabaseNetwork.user[48] tableDistribution "\"uniform\""
par DatabaseNetwork.user[48] serviceTime 0.1s
attr unit s
par DatabaseNetwork.user[48] lognormalM 0.5
par DatabaseNetwork.user[48] lognormalS 1
scalar DatabaseNetwork.user[48] totalAccesses 489
scalar DatabaseNetwork.user[48] totalReads 334
scalar DatabaseNetwork.user[48] totalWrites 155
scalar DatabaseNetwork.user[48] averageWaitTime 0.10118435793534
scalar DatabaseNetwork.user[48] accessesPerSecond 0.0489
par DatabaseNetwork.user[49] typename "\"progetto.User\""
par DatabaseNetwork.user[49] userId 49
par DatabaseNetwork.user[49] lambda 0.05
par DatabaseNetwork.user[49] readProbability 0.7
par DatabaseNetwork.user[49] numTables 20
par DatabaseNetwork.user[49] tableDistribution "\"uniform\""
par DatabaseNetwork.user[49] serviceTime 0.1s
attr unit s
par DatabaseNetwork.user[49] lognormalM 0.5
par DatabaseNetwork.user[49] lognormalS 1
scalar DatabaseNetwork.user[49] totalAccesses 539
scalar DatabaseNetwork.user[49] totalReads 379
scalar DatabaseNetwork.user[49] totalWrites 160
scalar DatabaseNetwork.user[49] averageWaitTime 0.10076269839339
scalar DatabaseNetwork.user[49] accessesPerSecond 0.0539
par DatabaseNetwork.user[50] typename "\"progetto.User\""
par DatabaseNetwork.user[50] userId 50
par DatabaseNetwork.user[50] lambda 0.05
par DatabaseNetwork.user[50] readProbability 0.7
par DatabaseNetwork.user[50] numTables 20
par DatabaseNetwork.user[50] tableDistribution "\"uniform\""
par DatabaseNetwork.user[50] serviceTime 0.1s
attr unit s
par DatabaseNetwork.user[50] lognormalM 0.5
par DatabaseNetwork.user[50] lognormalS 1
scalar DatabaseNetwork.user[50] totalAccesses 485
scalar DatabaseNetwork.user[50] totalReads 347
scalar DatabaseNetwork.user[50] totalWrites 138
scalar DatabaseNetwork.user[50] averageWaitTime 0.10172351371599
scalar DatabaseNetwork.user[50] accessesPerSecond 0.0485
par DatabaseNetwork.user[51] typename "\"progetto.User\""
par DatabaseNetwork.user[51] userId 51
par DatabaseNetwork.user[51] lambda 0.05
par DatabaseNetwork.user[51] readProbability 0.7
par DatabaseNetwork.user[51] numTables 20
par DatabaseNetwork.user[51] tableDistribution "\"uniform\""
par DatabaseNetwork.user[51] serviceTime 0.1s
attr unit s
par DatabaseNetwork.user[51] lognormalM 0.5
par DatabaseNetwork.user[51] lognormalS 1
scalar DatabaseNetwork.user[51] totalAccesses 469
scalar DatabaseNetwork.user[51] totalReads 322
scalar DatabaseNetwork.user[51] totalWrites 147
scalar DatabaseNetwork.user[51] averageWaitTime 0.10162285231383
scalar DatabaseNetwork.user[51] accessesPerSecond 0.0469
par DatabaseNetwork.user[52] typename "\"progetto.User\""
par DatabaseNetwork.user[52] userId 52
par DatabaseNetwork.user[52] lambda 0.05
par DatabaseNetwork.user[52] readProbability 0.7
par DatabaseNetwork.user[52] numTables 20
par DatabaseNetwork.user[52] tableDistribution "\"uniform\""
par DatabaseNetwork.user[52] serviceTime 0.1s
attr unit s
par DatabaseNetwork.user[52] lognormalM 0.5
par DatabaseNetwork.user[52] lognormalS 1
scalar DatabaseNetwork.user[52] totalAccesses 487
scalar DatabaseNetwork.user[52] totalReads 333
scalar DatabaseNetwork.user[52] totalWrites 154
scalar DatabaseNetwork.user[52] averageWaitTime 0.10045004990442
scalar DatabaseNetwork.user[52] accessesPerSecond 0.0487
par DatabaseNetwork.user[53] typename "\"progetto.User\""
par DatabaseNetwork.user[53] userId 53
par DatabaseNetwork.user[53] lambda 0.05
par DatabaseNetwork.user[53] readProbability 0.7
par DatabaseNetwork.user[53] numTables 20
par DatabaseNetwork.user[53] tableDistribution "\"uniform\""
par DatabaseNetwork.user[53] serviceTime 0.1s
attr unit s
par DatabaseNetwork.user[53] lognormalM 0.5
par DatabaseNetwork.user[53] lognormalS 1
scalar DatabaseNetwork.user[53] totalAccesses 518
scalar DatabaseNetwork.user[53] totalReads 350
scalar DatabaseNetwork.user[53] totalWrites 168
scalar DatabaseNetwork.user[53] averageWaitTime 0.10083013248552
scalar DatabaseNetwork.user[53] accessesPerSecond 0.0518
par DatabaseNetwork.user[54] typename "\"progetto.User\""
par DatabaseNetwork.user[54] userId 54
par DatabaseNetwork.user[54] lambda 0.05
par DatabaseNetwork.user[54] readProbability 0.7
par DatabaseNetwork.user[54] numTables 20
par DatabaseNetwork.user[54] tableDistribution "\"uniform\""
par DatabaseNetwork.user[54] serviceTime 0.1s
attr unit s
par DatabaseNetwork.user[54] lognormalM 0.5
par DatabaseNetwork.user[54] lognormalS 1
scalar DatabaseNetwork.user[54] totalAccesses 520
scalar DatabaseNetwork.user[54] totalReads 385
scalar DatabaseNetwork.user[54] totalWrites 135
scalar DatabaseNetwork.user[54] averageWaitTime 0.1010138799561
scalar DatabaseNetwork.user[54] accessesPerSecond 0.052
par DatabaseNetwork.user[55] typename "\"progetto.User\""
par DatabaseNetwork.user[55] userId 55
par DatabaseNetwork.user[55] lambda 0.05
par DatabaseNetwork.user[55] readProbability 0.7
par DatabaseNetwork.user[55] numTables 20
par DatabaseNetwork.user[55] tableDistribution "\"uniform\""
par DatabaseNetwork.user[55] serviceTime 0.1s
attr unit s
par DatabaseNetwork.user[55] lognormalM 0.5
par DatabaseNetwork.user[55] lognormalS 1
scalar DatabaseNetwork.user[55] totalAccesses 530
scalar DatabaseNetwork.user[55] totalReads 364
scalar DatabaseNetwork.user[55] totalWrites 166
scalar DatabaseNetwork.user[55] averageWaitTime 0.10075681310419
scalar DatabaseNetwork.user[55] accessesPerSecond 0.053
par DatabaseNetwork.user[56] typename "\"progetto.User\""
par DatabaseNetwork.user[56] userId 56
par DatabaseNetwork.user[56] lambda 0.05
par DatabaseNetwork.user[56] readProbability 0.7
par DatabaseNetwork.user[56] numTables 20
par DatabaseNetwork.user[56] tableDistribution "\"uniform\""
par DatabaseNetwork.user[56] serviceTime 0.1s
attr unit s
par DatabaseNetwork.user[56] lognormalM 0.5
par DatabaseNetwork.user[56] lognormalS 1
scalar DatabaseNetwork.user[56] totalAccesses 529
scalar DatabaseNetwork.user[56] totalReads 359
scalar DatabaseNetwork.user[56] totalWrites 170
scalar DatabaseNetwork.user[56] averageWaitTime 0.1010739800065
scalar DatabaseNetwork.user[56] accessesPerSecond 0.0529
par DatabaseNetwork.user[57] typename "\"progetto.User\""
par DatabaseNetwork.user[57] userId 57
par DatabaseNetwork.user[57] lambda 0.05
par DatabaseNetwork.user[57] readProbability 0.7
par DatabaseNetwork.user[57] numTables 20
par DatabaseNetwork.user[57] tableDistribution "\"uniform\""
par DatabaseNetwork.user[57] serviceTime 0.1s
attr unit s
par DatabaseNetwork.user[57] lognormalM 0.5
par DatabaseNetwork.user[57] lognormalS 1
scalar DatabaseNetwork.user[57] totalAccesses 477
scalar DatabaseNetwork.user[57] totalReads 332
scalar DatabaseNetwork.user[57] totalWrites 145
scalar DatabaseNetwork.user[57] averageWaitTime 0.10102573024225
scalar DatabaseNetwork.user[57] accessesPerSecond 0.0477
par DatabaseNetwork.user[58] typename "\"progetto.User\""
par DatabaseNetwork.user[58] userId 58
par DatabaseNetwork.user[58] lambda 0.05
par DatabaseNetwork.user[58] readProbability 0.7
par DatabaseNetwork.user[58] numTables 20
par DatabaseNetwork.user[58] tableDistribution "\"uniform\""
par DatabaseNetwork.user[58] serviceTime 0.1s
attr unit s
par DatabaseNetwork.user[58] lognormalM 0.5
par DatabaseNetwork.user[58] lognormalS 1
scalar DatabaseNetwork.user[58] totalAccesses 545
scalar DatabaseNetwork.user[58] totalReads 373
scalar DatabaseNetwork.user[58] totalWrites 172
scalar DatabaseNetwork.user[58] averageWaitTime 0.10085823991587
scalar DatabaseNetwork.user[58] accessesPerSecond 0.0545
par DatabaseNetwork.user[59] typename "\"progetto.User\""
par DatabaseNetwork.user[59] userId 59
par DatabaseNetwork.user[59] lambda 0.05
par DatabaseNetwork.user[59] readProbability 0.7
par DatabaseNetwork.user[59] numTables 20
par DatabaseNetwork.user[59] tableDistribution "\"uniform\""
par DatabaseNetwork.user[59] serviceTime 0.1s
attr unit s
par DatabaseNetwork.user[59] lognormalM 0.5
par DatabaseNetwork.user[59] lognormalS 1
scalar DatabaseNetwork.user[59] totalAccesses 519
scalar DatabaseNetwork.user[59] totalReads 336
scalar DatabaseNetwork.user[59] totalWrites 183
scalar DatabaseNetwork.user[59] averageWaitTime 0.10087151052196
scalar DatabaseNetwork.user[59] accessesPerSecond 0.0519
par DatabaseNetwork.user[60] typename "\"progetto.User\""
par DatabaseNetwork.user[60] userId 60
par DatabaseNetwork.user[60] lambda 0.05
par DatabaseNetwork.user[60] readProbability 0.7
par DatabaseNetwork.user[60] numTables 20
par DatabaseNetwork.user[60] tableDistribution "\"uniform\""
par DatabaseNetwork.user[60] serviceTime 0.1s
attr unit s
par DatabaseNetwork.user[60] lognormalM 0.5
par DatabaseNetwork.user[60] lognormalS 1
scalar DatabaseNetwork.user[60] totalAccesses 478
scalar DatabaseNetwork.user[60] totalReads 336
scalar DatabaseNetwork.user[60] totalWrites 142
scalar DatabaseNetwork.user[60] averageWaitTime 0.10095412288968
scalar DatabaseNetwork.user[60] accessesPerSecond 0.0478
par DatabaseNetwork.user[61] typename "\"progetto.User\""
par DatabaseNetwork.user[61] userId 61
par DatabaseNetwork.user[61] lambda 0.05
par DatabaseNetwork.user[61] readProbability 0.7
par DatabaseNetwork.user[61] numTables 20
par DatabaseNetwork.user[61] tableDistribution "\"uniform\""
par DatabaseNetwork.user[61] serviceTime 0.1s
attr unit s
par DatabaseNetwork.user[61] lognormalM 0.5
par DatabaseNetwork.user[61] lognormalS 1
scalar DatabaseNetwork.user[61] totalAccesses 486
scalar DatabaseNetwork.user[61] totalReads 359
scalar DatabaseNetwork.user[61] totalWrites 127
scalar DatabaseNetwork.user[61] averageWaitTime 0.10069931335636
scalar DatabaseNetwork.user[61] accessesPerSecond 0.0486
par DatabaseNetwork.user[62] typename "\"progetto.User\""
par DatabaseNetwork.user[62] userId 62
par DatabaseNetwork.user[62] lambda 0.05
par DatabaseNetwork.user[62] readProbability 0.7
par DatabaseNetwork.user[62] numTables 20
par DatabaseNetwork.user[62] tableDistribution "\"uniform\""
par DatabaseNetwork.user[62] serviceTime 0.1s
attr unit s
par DatabaseNetwork.user[62] lognormalM 0.5
par DatabaseNetwork.user[62] lognormalS 1
scalar DatabaseNetwork.user[62] totalAccesses 502
scalar DatabaseNetwork.user[62] totalReads 344
scalar DatabaseNetwork.user[62] totalWrites 158
scalar DatabaseNetwork.user[62] averageWaitTime 0.10058620557112
scalar DatabaseNetwork.user[62] accessesPerSecond 0.0502
par DatabaseNetwork.user[63] typename "\"progetto.User\""
par DatabaseNetwork.user[63] userId 63
par DatabaseNetwork.user[63] lambda 0.05
par DatabaseNetwork.user[63] readProbability 0.7
par DatabaseNetwork.user[63] numTables 20
par DatabaseNetwork.user[63] tableDistribution "\"uniform\""
par DatabaseNetwork.user[63] serviceTime 0.1s
attr unit s
par DatabaseNetwork.user[63] lognormalM 0.5
par DatabaseNetwork.user[63] lognormalS 1
scalar DatabaseNetwork.user[63] totalAccesses 446
scalar DatabaseNetwork.user[63] totalReads 319
scalar DatabaseNetwork.user[63] totalWrites 127
scalar DatabaseNetwork.user[63] averageWaitTime 0.10083325705479
scalar DatabaseNetwork.user[63] accessesPerSecond 0.0446
par DatabaseNetwork.user[64] typename "\"progetto.User\""
par DatabaseNetwork.user[64] userId 64
par DatabaseNetwork.user[64] lambda 0.05
par DatabaseNetwork.user[64] readProbability 0.7
par DatabaseNetwork.user[64] numTables 20
par DatabaseNetwork.user[64] tableDistribution "\"uniform\""
par DatabaseNetwork.user[64] serviceTime 0.1s
attr unit s
par DatabaseNetwork.user[64] lognormalM 0.5
par DatabaseNetwork.user[64] lognormalS 1
scalar DatabaseNetwork.user[64] totalAccesses 485
scalar DatabaseNetwork.user[64] totalReads 347
scalar DatabaseNetwork.user[64] totalWrites 138
scalar DatabaseNetwork.user[64] averageWaitTime 0.10099706545328
scalar DatabaseNetwork.user[64] accessesPerSecond 0.0485
par DatabaseNetwork.user[65] typename "\"progetto.User\""
par DatabaseNetwork.user[65] userId 65
par DatabaseNetwork.user[65] lambda 0.05
par DatabaseNetwork.user[65] readProbability 0.7
par DatabaseNetwork.user[65] numTables 20
par DatabaseNetwork.user[65] tableDistribution "\"uniform\""
par DatabaseNetwork.user[65] serviceTime 0.1s
attr unit s
par DatabaseNetwork.user[65] lognormalM 0.5
par DatabaseNetwork.user[65] lognormalS 1
scalar DatabaseNetwork.user[65] totalAccesses 464
scalar DatabaseNetwork.user[65] totalReads 335
scalar DatabaseNetwork.user[65] totalWrites 129
scalar DatabaseNetwork.user[65] averageWaitTime 0.10138081048743
scalar DatabaseNetwork.user[65] accessesPerSecond 0.0464
par DatabaseNetwork.user[66] typename "\"progetto.User\""
par DatabaseNetwork.user[66] userId 66
par DatabaseNetwork.user[66] lambda 0.05
par DatabaseNetwork.user[66] readProbability 0.7
par DatabaseNetwork.user[66] numTables 20
par DatabaseNetwork.user[66] tableDistribution "\"uniform\""
par DatabaseNetwork.user[66] serviceTime 0.1s
attr unit s
par DatabaseNetwork.user[66] lognormalM 0.5
par DatabaseNetwork.user[66] lognormalS 1
scalar DatabaseNetwork.user[66] totalAccesses 530
scalar DatabaseNetwork.user[66] totalReads 383
scalar DatabaseNetwork.user[66] totalWrites 147
scalar DatabaseNetwork.user[66] averageWaitTime 0.10105291156892
scalar DatabaseNetwork.user[66] accessesPerSecond 0.053
par DatabaseNetwork.user[67] typename "\"progetto.User\""
par DatabaseNetwork.user[67] userId 67
par DatabaseNetwork.user[67] lambda 0.05
par DatabaseNetwork.user[67] readProbability 0.7
par DatabaseNetwork.user[67] numTables 20
par DatabaseNetwork.user[67] tableDistribution "\"uniform\""
par DatabaseNetwork.user[67] serviceTime 0.1s
attr unit s
par DatabaseNetwork.user[67] lognormalM 0.5
par DatabaseNetwork.user[67] lognormalS 1
scalar DatabaseNetwork.user[67] totalAccesses 523
scalar DatabaseNetwork.user[67] totalReads 379
scalar DatabaseNetwork.user[67] totalWrites 144
scalar DatabaseNetwork.user[67] averageWaitTime 0.10018600903093
scalar DatabaseNetwork.user[67] accessesPerSecond 0.0523
par DatabaseNetwork.user[68] typename "\"progetto.User\""
par DatabaseNetwork.user[68] userId 68
par DatabaseNetwork.user[68] lambda 0.05
par DatabaseNetwork.user[68] readProbability 0.7
par DatabaseNetwork.user[68] numTables 20
par DatabaseNetwork.user[68] tableDistribution "\"uniform\""
par DatabaseNetwork.user[68] serviceTime 0.1s
attr unit s
par DatabaseNetwork.user[68] lognormalM 0.5
par DatabaseNetwork.user[68] lognormalS 1
scalar DatabaseNetwork.user[68] totalAccesses 533
scalar DatabaseNetwork.user[68] totalReads 389
scalar DatabaseNetwork.user[68] totalWrites 144
scalar DatabaseNetwork.user[68] averageWaitTime 0.10048992294639
scalar DatabaseNetwork.user[68] accessesPerSecond 0.0533
par DatabaseNetwork.user[69] typename "\"progetto.User\""
par DatabaseNetwork.user[69] userId 69
par DatabaseNetwork.user[69] lambda 0.05
par DatabaseNetwork.user[69] readProbability 0.7
par DatabaseNetwork.user[69] numTables 20
par DatabaseNetwork.user[69] tableDistribution "\"uniform\""
par DatabaseNetwork.user[69] serviceTime 0.1s
attr unit s
par DatabaseNetwork.user[69] lognormalM 0.5
par DatabaseNetwork.user[69] lognormalS 1
scalar DatabaseNetwork.user[69] totalAccesses 503
scalar DatabaseNetwork.user[69] totalReads 352
scalar DatabaseNetwork.user[69] totalWrites 151
scalar DatabaseNetwork.user[69] averageWaitTime 0.1004089671087
scalar DatabaseNetwork.user[69] accessesPerSecond 0.0503
par DatabaseNetwork.user[70] typename "\"progetto.User\""
par DatabaseNetwork.user[70] userId 70
par DatabaseNetwork.user[70] lambda 0.05
par DatabaseNetwork.user[70] readProbability 0.7
par DatabaseNetwork.user[70] numTables 20
par DatabaseNetwork.user[70] tableDistribution "\"uniform\""
par DatabaseNetwork.user[70] serviceTime 0.1s
attr unit s
par DatabaseNetwork.user[70] lognormalM 0.5
par DatabaseNetwork.user[70] lognormalS 1
scalar DatabaseNetwork.user[70] totalAccesses 485
scalar DatabaseNetwork.user[70] totalReads 336
scalar DatabaseNetwork.user[70] totalWrites 149
scalar DatabaseNetwork.user[70] averageWaitTime 0.10078825779139
scalar DatabaseNetwork.user[70] accessesPerSecond 0.0485
par DatabaseNetwork.user[71] typename "\"progetto.User\""
par DatabaseNetwork.user[71] userId 71
par DatabaseNetwork.user[71] lambda 0.05
par DatabaseNetwork.user[71] readProbability 0.7
par DatabaseNetwork.user[71] numTables 20
par DatabaseNetwork.user[71] tableDistribution "\"uniform\""
par DatabaseNetwork.user[71] serviceTime 0.1s
attr unit s
par DatabaseNetwork.user[71] lognormalM 0.5
par DatabaseNetwork.user[71] lognormalS 1
scalar DatabaseNetwork.user[71] totalAccesses 481
scalar DatabaseNetwork.user[71] totalReads 331
scalar DatabaseNetwork.user[71] totalWrites 150
scalar DatabaseNetwork.user[71] averageWaitTime 0.10050380238187
scalar DatabaseNetwork.user[71] accessesPerSecond 0.0481
par DatabaseNetwork.user[72] typename "\"progetto.User\""
par DatabaseNetwork.user[72] userId 72
par DatabaseNetwork.user[72] lambda 0.05
par DatabaseNetwork.user[72] readProbability 0.7
par DatabaseNetwork.user[72] numTables 20
par DatabaseNetwork.user[72] tableDistribution "\"uniform\""
par DatabaseNetwork.user[72] serviceTime 0.1s
attr unit s
par DatabaseNetwork.user[72] lognormalM 0.5
par DatabaseNetwork.user[72] lognormalS 1
scalar DatabaseNetwork.user[72] totalAccesses 524
scalar DatabaseNetwork.user[72] totalReads 367
scalar DatabaseNetwork.user[72] totalWrites 157
scalar DatabaseNetwork.user[72] averageWaitTime 0.10083353554339
scalar DatabaseNetwork.user[72] accessesPerSecond 0.0524
par DatabaseNetwork.user[73] typename "\"progetto.User\""
par DatabaseNetwork.user[73] userId 73
par DatabaseNetwork.user[73] lambda 0.05
par DatabaseNetwork.user[73] readProbability 0.7
par DatabaseNetwork.user[73] numTables 20
par DatabaseNetwork.user[73] tableDistribution "\"uniform\""
par DatabaseNetwork.user[73] serviceTime 0.1s
attr unit s
par DatabaseNetwork.user[73] lognormalM 0.5
par DatabaseNetwork.user[73] lognormalS 1
scalar DatabaseNetwork.user[73] totalAccesses 471
scalar DatabaseNetwork.user[73] totalReads 341
scalar DatabaseNetwork.user[73] totalWrites 130
scalar DatabaseNetwork.user[73] averageWaitTime 0.10064058294248
scalar DatabaseNetwork.user[73] accessesPerSecond 0.0471
par DatabaseNetwork.user[74] typename "\"progetto.User\""
par DatabaseNetwork.user[74] userId 74
par DatabaseNetwork.user[74] lambda 0.05
par DatabaseNetwork.user[74] readProbability 0.7
par DatabaseNetwork.user[74] numTables 20
par DatabaseNetwork.user[74] tableDistribution "\"uniform\""
par DatabaseNetwork.user[74] serviceTime 0.1s
attr unit s
par DatabaseNetwork.user[74] lognormalM 0.5
par DatabaseNetwork.user[74] lognormalS 1
scalar DatabaseNetwork.user[74] totalAccesses 474
scalar DatabaseNetwork.user[74] totalReads 332
scalar DatabaseNetwork.user[74] totalWrites 142
scalar DatabaseNetwork.user[74] averageWaitTime 0.10107698005894
scalar DatabaseNetwork.user[74] accessesPerSecond 0.0474
par DatabaseNetwork.user[75] typename "\"progetto.User\""
par DatabaseNetwork.user[75] userId 75
par DatabaseNetwork.user[75] lambda 0.05
par DatabaseNetwork.user[75] readProbability 0.7
par DatabaseNetwork.user[75] numTables 20
par DatabaseNetwork.user[75] tableDistribution "\"uniform\""
par DatabaseNetwork.user[75] serviceTime 0.1s
attr unit s
par DatabaseNetwork.user[75] lognormalM 0.5
par DatabaseNetwork.user[75] lognormalS 1
scalar DatabaseNetwork.user[75] totalAccesses 494
scalar DatabaseNetwork.user[75] totalReads 333
scalar DatabaseNetwork.user[75] totalWrites 161
scalar DatabaseNetwork.user[75] averageWaitTime 0.10124341862809
scalar DatabaseNetwork.user[75] accessesPerSecond 0.0494
par DatabaseNetwork.user[76] typename "\"progetto.User\""
par DatabaseNetwork.user[76] userId 76
par DatabaseNetwork.user[76] lambda 0.05
par DatabaseNetwork.user[76] readProbability 0.7
par DatabaseNetwork.user[76] numTables 20
par DatabaseNetwork.user[76] tableDistribution "\"uniform\""
par DatabaseNetwork.user[76] serviceTime 0.1s
attr unit s
par DatabaseNetwork.user[76] lognormalM 0.5
par DatabaseNetwork.user[76] lognormalS 1
scalar DatabaseNetwork.user[76] totalAccesses 487
scalar DatabaseNetwork.user[76] totalReads 343
scalar DatabaseNetwork.user[76] totalWrites 144
scalar DatabaseNetwork.user[76] averageWaitTime 0.10103723404083
scalar DatabaseNetwork.user[76] accessesPerSecond 0.0487
par DatabaseNetwork.user[77] typename "\"progetto.User\""
par DatabaseNetwork.user[77] userId 77
par DatabaseNetwork.user[77] lambda 0.05
par DatabaseNetwork.user[77] readProbability 0.7
par DatabaseNetwork.user[77] numTables 20
par DatabaseNetwork.user[77] tableDistribution "\"uniform\""
par DatabaseNetwork.user[77] serviceTime 0.1s
attr unit s
par DatabaseNetwork.user[77] lognormalM 0.5
par DatabaseNetwork.user[77] lognormalS 1
scalar DatabaseNetwork.user[77] totalAccesses 506
scalar DatabaseNetwork.user[77] totalReads 337
scalar DatabaseNetwork.user[77] totalWrites 169
scalar DatabaseNetwork.user[77] averageWaitTime 0.10164128452593
scalar DatabaseNetwork.user[77] accessesPerSecond 0.0506
par DatabaseNetwork.user[78] typename "\"progetto.User\""
par DatabaseNetwork.user[78] userId 78
par DatabaseNetwork.user[78] lambda 0.05
par DatabaseNetwork.user[78] readProbability 0.7
par DatabaseNetwork.user[78] numTables 20
par DatabaseNetwork.user[78] tableDistribution "\"uniform\""
par DatabaseNetwork.user[78] serviceTime 0.1s
attr unit s
par DatabaseNetwork.user[78] lognormalM 0.5
par DatabaseNetwork.user[78] lognormalS 1
scalar DatabaseNetwork.user[78] totalAccesses 508
scalar DatabaseNetwork.user[78] totalReads 362
scalar DatabaseNetwork.user[78] totalWrites 146
scalar DatabaseNetwork.user[78] averageWaitTime 0.10097618000565
scalar DatabaseNetwork.user[78] accessesPerSecond 0.0508
par DatabaseNetwork.user[79] typename "\"progetto.User\""
par DatabaseNetwork.user[79] userId 79
par DatabaseNetwork.user[79] lambda 0.05
par DatabaseNetwork.user[79] readProbability 0.7
par DatabaseNetwork.user[79] numTables 20
par DatabaseNetwork.user[79] tableDistribution "\"uniform\""
par DatabaseNetwork.user[79] serviceTime 0.1s
attr unit s
par DatabaseNetwork.user[79] lognormalM 0.5
par DatabaseNetwork.user[79] lognormalS 1
scalar DatabaseNetwork.user[79] totalAccesses 533
scalar DatabaseNetwork.user[79] totalReads 366
scalar DatabaseNetwork.user[79] totalWrites 167
scalar DatabaseNetwork.user[79] averageWaitTime 0.10120868801905
scalar DatabaseNetwork.user[79] accessesPerSecond 0.0533
par DatabaseNetwork.user[80] typename "\"progetto.User\""
par DatabaseNetwork.user[80] userId 80
par DatabaseNetwork.user[80] lambda 0.05
par DatabaseNetwork.user[80] readProbability 0.7
par DatabaseNetwork.user[80] numTables 20
par DatabaseNetwork.user[80] tableDistribution "\"uniform\""
par DatabaseNetwork.user[80] serviceTime 0.1s
attr unit s
par DatabaseNetwork.user[80] lognormalM 0.5
par DatabaseNetwork.user[80] lognormalS 1
scalar DatabaseNetwork.user[80] totalAccesses 504
scalar DatabaseNetwork.user[80] totalReads 363
scalar DatabaseNetwork.user[80] totalWrites 141
scalar DatabaseNetwork.user[80] averageWaitTime 0.10053917018425
scalar DatabaseNetwork.user[80] accessesPerSecond 0.0504
par DatabaseNetwork.user[81] typename "\"progetto.User\""
par DatabaseNetwork.user[81] userId 81
par DatabaseNetwork.user[81] lambda 0.05
par DatabaseNetwork.user[81] readProbability 0.7
par DatabaseNetwork.user[81] numTables 20
par DatabaseNetwork.user[81] tableDistribution "\"uniform\""
par DatabaseNetwork.user[81] serviceTime 0.1s
attr unit s
par DatabaseNetwork.user[81] lognormalM 0.5
par DatabaseNetwork.user[81] lognormalS 1
scalar DatabaseNetwork.user[81] totalAccesses 452
scalar DatabaseNetwork.user[81] totalReads 313
scalar DatabaseNetwork.user[81] totalWrites 139
scalar DatabaseNetwork.user[81] averageWaitTime 0.1011428472187
scalar DatabaseNetwork.user[81] accessesPerSecond 0.0452
par DatabaseNetwork.user[82] typename "\"progetto.User\""
par DatabaseNetwork.user[82] userId 82
par DatabaseNetwork.user[82] lambda 0.05
par DatabaseNetwork.user[82] readProbability 0.7
par DatabaseNetwork.user[82] numTables 20
par DatabaseNetwork.user[82] tableDistribution "\"uniform\""
par DatabaseNetwork.user[82] serviceTime 0.1s
attr unit s
par DatabaseNetwork.user[82] lognormalM 0.5
par DatabaseNetwork.user[82] lognormalS 1
scalar DatabaseNetwork.user[82] totalAccesses 481
scalar DatabaseNetwork.user[82] totalReads 337
scalar DatabaseNetwork.user[82] totalWrites 144
scalar DatabaseNetwork.user[82] averageWaitTime 0.1011489882042
scalar DatabaseNetwork.user[82] accessesPerSecond 0.0481
par DatabaseNetwork.user[83] typename "\"progetto.User\""
par DatabaseNetwork.user[83] userId 83
par DatabaseNetwork.user[83] lambda 0.05
par DatabaseNetwork.user[83] readProbability 0.7
par DatabaseNetwork.user[83] numTables 20
par DatabaseNetwork.user[83] tableDistribution "\"uniform\""
par DatabaseNetwork.user[83] serviceTime 0.1s
attr unit s
par DatabaseNetwork.user[83] lognormalM 0.5
par DatabaseNetwork.user[83] lognormalS 1
scalar DatabaseNetwork.user[83] totalAccesses 466
scalar DatabaseNetwork.user[83] totalReads 342
scalar DatabaseNetwork.user[83] totalWrites 124
scalar DatabaseNetwork.user[83] averageWaitTime 0.100918444904
scalar DatabaseNetwork.user[83] accessesPerSecond 0.0466
par DatabaseNetwork.user[84] typename "\"progetto.User\""
par DatabaseNetwork.user[84] userId 84
par DatabaseNetwork.user[84] lambda 0.05
par DatabaseNetwork.user[84] readProbability 0.7
par DatabaseNetwork.user[84] numTables 20
par DatabaseNetwork.user[84] tableDistribution "\"uniform\""
par DatabaseNetwork.user[84] serviceTime 0.1s
attr unit s
par DatabaseNetwork.user[84] lognormalM 0.5
par DatabaseNetwork.user[84] lognormalS 1
scalar DatabaseNetwork.user[84] totalAccesses 506
scalar DatabaseNetwork.user[84] totalReads 355
scalar DatabaseNetwork.user[84] totalWrites 151
scalar DatabaseNetwork.user[84] averageWaitTime 0.10059312052237
scalar DatabaseNetwork.user[84] accessesPerSecond 0.0506
par DatabaseNetwork.user[85] typename "\"progetto.User\""
par DatabaseNetwork.user[85] userId 85
par DatabaseNetwork.user[85] lambda 0.05
par DatabaseNetwork.user[85] readProbability 0.7
par DatabaseNetwork.user[85] numTables 20
par DatabaseNetwork.user[85] tableDistribution "\"uniform\""
par DatabaseNetwork.user[85] serviceTime 0.1s
attr unit s
par DatabaseNetwork.user[85] lognormalM 0.5
par DatabaseNetwork.user[85] lognormalS 1
scalar DatabaseNetwork.user[85] totalAccesses 486
scalar DatabaseNetwork.user[85] totalReads 343
scalar DatabaseNetwork.user[85] totalWrites 143
scalar DatabaseNetwork.user[85] averageWaitTime 0.10109653334357
scalar DatabaseNetwork.user[85] accessesPerSecond 0.0486
par DatabaseNetwork.user[86] typename "\"progetto.User\""
par DatabaseNetwork.user[86] userId 86
par DatabaseNetwork.user[86] lambda 0.05
par DatabaseNetwork.user[86] readProbability 0.7
par DatabaseNetwork.user[86] numTables 20
par DatabaseNetwork.user[86] tableDistribution "\"uniform\""
par DatabaseNetwork.user[86] serviceTime 0.1s
attr unit s
par DatabaseNetwork.user[86] lognormalM 0.5
par DatabaseNetwork.user[86] lognormalS 1
scalar DatabaseNetwork.user[86] totalAccesses 495
scalar DatabaseNetwork.user[86] totalReads 356
scalar DatabaseNetwork.user[86] totalWrites 139
scalar DatabaseNetwork.user[86] averageWaitTime 0.10060406069934
scalar DatabaseNetwork.user[86] accessesPerSecond 0.0495
par DatabaseNetwork.user[87] typename "\"progetto.User\""
par DatabaseNetwork.user[87] userId 87
par DatabaseNetwork.user[87] lambda 0.05
par DatabaseNetwork.user[87] readProbability 0.7
par DatabaseNetwork.user[87] numTables 20
par DatabaseNetwork.user[87] tableDistribution "\"uniform\""
par DatabaseNetwork.user[87] serviceTime 0.1s
attr unit s
par DatabaseNetwork.user[87] lognormalM 0.5
par DatabaseNetwork.user[87] lognormalS 1
scalar DatabaseNetwork.user[87] totalAccesses 479
scalar DatabaseNetwork.user[87] totalReads 326
scalar DatabaseNetwork.user[87] totalWrites 153
scalar DatabaseNetwork.user[87] averageWaitTime 0.10078252686059
scalar DatabaseNetwork.user[87] accessesPerSecond 0.0479
par DatabaseNetwork.user[88] typename "\"progetto.User\""
par DatabaseNetwork.user[88] userId 88
par DatabaseNetwork.user[88] lambda 0.05
par DatabaseNetwork.user[88] readProbability 0.7
par DatabaseNetwork.user[88] numTables 20
par DatabaseNetwork.user[88] tableDistribution "\"uniform\""
par DatabaseNetwork.user[88] serviceTime 0.1s
attr unit s
par DatabaseNetwork.user[88] lognormalM 0.5
par DatabaseNetwork.user[88] lognormalS 1
scalar DatabaseNetwork.user[88] totalAccesses 478
scalar DatabaseNetwork.user[88] totalReads 332
scalar DatabaseNetwork.user[88] totalWrites 146
scalar DatabaseNetwork.user[88] averageWaitTime 0.10162418310354
scalar DatabaseNetwork.user[88] accessesPerSecond 0.0478
par DatabaseNetwork.user[89] typename "\"progetto.User\""
par DatabaseNetwork.user[89] userId 89
par DatabaseNetwork.user[89] lambda 0.05
par DatabaseNetwork.user[89] readProbability 0.7
par DatabaseNetwork.user[89] numTables 20
par DatabaseNetwork.user[89] tableDistribution "\"uniform\""
par DatabaseNetwork.user[89] serviceTime 0.1s
attr unit s
par DatabaseNetwork.user[89] lognormalM 0.5
par DatabaseNetwork.user[89] lognormalS 1
scalar DatabaseNetwork.user[89] totalAccesses 480
scalar DatabaseNetwork.user[89] totalReads 336
scalar DatabaseNetwork.user[89] totalWrites 144
scalar DatabaseNetwork.user[89] averageWaitTime 0.10166343510647
scalar DatabaseNetwork.user[89] accessesPerSecond 0.048
par DatabaseNetwork.user[90] typename "\"progetto.User\""
par DatabaseNetwork.user[90] userId 90
par DatabaseNetwork.user[90] lambda 0.05
par DatabaseNetwork.user[90] readProbability 0.7
par DatabaseNetwork.user[90] numTables 20
par DatabaseNetwork.user[90] tableDistribution "\"uniform\""
par DatabaseNetwork.user[90] serviceTime 0.1s
attr unit s
par DatabaseNetwork.user[90] lognormalM 0.5
par DatabaseNetwork.user[90] lognormalS 1
scalar DatabaseNetwork.user[90] totalAccesses 491
scalar DatabaseNetwork.user[90] totalReads 352
scalar DatabaseNetwork.user[90] totalWrites 139
scalar DatabaseNetwork.user[90] averageWaitTime 0.10120082950873
scalar DatabaseNetwork.user[90] accessesPerSecond 0.0491
par DatabaseNetwork.user[91] typename "\"progetto.User\""
par DatabaseNetwork.user[91] userId 91
par DatabaseNetwork.user[91] lambda 0.05
par DatabaseNetwork.user[91] readProbability 0.7
par DatabaseNetwork.user[91] numTables 20
par DatabaseNetwork.user[91] tableDistribution "\"uniform\""
par DatabaseNetwork.user[91] serviceTime 0.1s
attr unit s
par DatabaseNetwork.user[91] lognormalM 0.5
par DatabaseNetwork.user[91] lognormalS 1
scalar DatabaseNetwork.user[91] totalAccesses 462
scalar DatabaseNetwork.user[91] totalReads 307
scalar DatabaseNetwork.user[91] totalWrites 155
scalar DatabaseNetwork.user[91] averageWaitTime 0.10078732898817
scalar DatabaseNetwork.user[91] accessesPerSecond 0.0462
par DatabaseNetwork.user[92] typename "\"progetto.User\""
par DatabaseNetwork.user[92] userId 92
par DatabaseNetwork.user[92] lambda 0.05
par DatabaseNetwork.user[92] readProbability 0.7
par DatabaseNetwork.user[92] numTables 20
par DatabaseNetwork.user[92] tableDistribution "\"uniform\""
par DatabaseNetwork.user[92] serviceTime 0.1s
attr unit s
par DatabaseNetwork.user[92] lognormalM 0.5
par DatabaseNetwork.user[92] lognormalS 1
scalar DatabaseNetwork.user[92] totalAccesses 550
scalar DatabaseNetwork.user[92] totalReads 385
scalar DatabaseNetwork.user[92] totalWrites 165
scalar DatabaseNetwork.user[92] averageWaitTime 0.10077008551287
scalar DatabaseNetwork.user[92] accessesPerSecond 0.055
par DatabaseNetwork.user[93] typename "\"progetto.User\""
par DatabaseNetwork.user[93] userId 93
par DatabaseNetwork.user[93] lambda 0.05
par DatabaseNetwork.user[93] readProbability 0.7
par DatabaseNetwork.user[93] numTables 20
par DatabaseNetwork.user[93] tableDistribution "\"uniform\""
par DatabaseNetwork.user[93] serviceTime 0.1s
attr unit s
par DatabaseNetwork.user[93] lognormalM 0.5
par DatabaseNetwork.user[93] lognormalS 1
scalar DatabaseNetwork.user[93] totalAccesses 492
scalar DatabaseNetwork.user[93] totalReads 356
scalar DatabaseNetwork.user[93] totalWrites 136
scalar DatabaseNetwork.user[93] averageWaitTime 0.10147642528283
scalar DatabaseNetwork.user[93] accessesPerSecond 0.0492
par DatabaseNetwork.user[94] typename "\"progetto.User\""
par DatabaseNetwork.user[94] userId 94
par DatabaseNetwork.user[94] lambda 0.05
par DatabaseNetwork.user[94] readProbability 0.7
par DatabaseNetwork.user[94] numTables 20
par DatabaseNetwork.user[94] tableDistribution "\"uniform\""
par DatabaseNetwork.user[94] serviceTime 0.1s
attr unit s
par DatabaseNetwork.user[94] lognormalM 0.5
par DatabaseNetwork.user[94] lognormalS 1
scalar DatabaseNetwork.user[94] totalAccesses 520
scalar DatabaseNetwork.user[94] totalReads 366
scalar DatabaseNetwork.user[94] totalWrites 154
scalar DatabaseNetwork.user[94] averageWaitTime 0.10196744276368
scalar DatabaseNetwork.user[94] accessesPerSecond 0.052
par DatabaseNetwork.user[95] typename "\"progetto.User\""
par DatabaseNetwork.user[95] userId 95
par DatabaseNetwork.user[95] lambda 0.05
par DatabaseNetwork.user[95] readProbability 0.7
par DatabaseNetwork.user[95] numTables 20
par DatabaseNetwork.user[95] tableDistribution "\"uniform\""
par DatabaseNetwork.user[95] serviceTime 0.1s
attr unit s
par DatabaseNetwork.user[95] lognormalM 0.5
par DatabaseNetwork.user[95] lognormalS 1
scalar DatabaseNetwork.user[95] totalAccesses 472
scalar DatabaseNetwork.user[95] totalReads 342
scalar DatabaseNetwork.user[95] totalWrites 130
scalar DatabaseNetwork.user[95] averageWaitTime 0.10042424044053
scalar DatabaseNetwork.user[95] accessesPerSecond 0.0472
par DatabaseNetwork.user[96] typename "\"progetto.User\""
par DatabaseNetwork.user[96] userId 96
par DatabaseNetwork.user[96] lambda 0.05
par DatabaseNetwork.user[96] readProbability 0.7
par DatabaseNetwork.user[96] numTables 20
par DatabaseNetwork.user[96] tableDistribution "\"uniform\""
par DatabaseNetwork.user[96] serviceTime 0.1s
attr unit s
par DatabaseNetwork.user[96] lognormalM 0.5
par DatabaseNetwork.user[96] lognormalS 1
scalar DatabaseNetwork.user[96] totalAccesses 525
scalar DatabaseNetwork.user[96] totalReads 376
scalar DatabaseNetwork.user[96] totalWrites 149
scalar DatabaseNetwork.user[96] averageWaitTime 0.1005071833469
scalar DatabaseNetwork.user[96] accessesPerSecond 0.0525
par DatabaseNetwork.user[97] typename "\"progetto.User\""
par DatabaseNetwork.user[97] userId 97
par DatabaseNetwork.user[97] lambda 0.05
par DatabaseNetwork.user[97] readProbability 0.7
par DatabaseNetwork.user[97] numTables 20
par DatabaseNetwork.user[97] tableDistribution "\"uniform\""
par DatabaseNetwork.user[97] serviceTime 0.1s
attr unit s
par DatabaseNetwork.user[97] lognormalM 0.5
par DatabaseNetwork.user[97] lognormalS 1
scalar DatabaseNetwork.user[97] totalAccesses 482
scalar DatabaseNetwork.user[97] totalReads 329
scalar DatabaseNetwork.user[97] totalWrites 153
scalar DatabaseNetwork.user[97] averageWaitTime 0.10106362719999
scalar DatabaseNetwork.user[97] accessesPerSecond 0.0482
par DatabaseNetwork.user[98] typename "\"progetto.User\""
par DatabaseNetwork.user[98] userId 98
par DatabaseNetwork.user[98] lambda 0.05
par DatabaseNetwork.user[98] readProbability 0.7
par DatabaseNetwork.user[98] numTables 20
par DatabaseNetwork.user[98] tableDistribution "\"uniform\""
par DatabaseNetwork.user[98] serviceTime 0.1s
attr unit s
par DatabaseNetwork.user[98] lognormalM 0.5
par DatabaseNetwork.user[98] lognormalS 1
scalar DatabaseNetwork.user[98] totalAccesses 489
scalar DatabaseNetwork.user[98] totalReads 351
scalar DatabaseNetwork.user[98] totalWrites 138
scalar DatabaseNetwork.user[98] averageWaitTime 0.10074875919843
scalar DatabaseNetwork.user[98] accessesPerSecond 0.0489
par DatabaseNetwork.user[99] typename "\"progetto.User\""
par DatabaseNetwork.user[99] userId 99
par DatabaseNetwork.user[99] lambda 0.05
par DatabaseNetwork.user[99] readProbability 0.7
par DatabaseNetwork.user[99] numTables 20
par DatabaseNetwork.user[99] tableDistribution "\"uniform\""
par DatabaseNetwork.user[99] serviceTime 0.1s
attr unit s
par DatabaseNetwork.user[99] lognormalM 0.5
par DatabaseNetwork.user[99] lognormalS 1
scalar DatabaseNetwork.user[99] totalAccesses 515
scalar DatabaseNetwork.user[99] totalReads 367
scalar DatabaseNetwork.user[99] totalWrites 148
scalar DatabaseNetwork.user[99] averageWaitTime 0.10062346312168
scalar DatabaseNetwork.user[99] accessesPerSecond 0.0515
par DatabaseNetwork.user[100] typename "\"progetto.User\""
par DatabaseNetwork.user[100] userId 100
par DatabaseNetwork.user[100] lambda 0.05
par DatabaseNetwork.user[100] readProbability 0.7
par DatabaseNetwork.user[100] numTables 20
par DatabaseNetwork.user[100] tableDistribution "\"uniform\""
par DatabaseNetwork.user[100] serviceTime 0.1s
attr unit s
par DatabaseNetwork.user[100] lognormalM 0.5
par DatabaseNetwork.user[100] lognormalS 1
scalar DatabaseNetwork.user[100] totalAccesses 453
scalar DatabaseNetwork.user[100] totalReads 314
scalar DatabaseNetwork.user[100] totalWrites 139
scalar DatabaseNetwork.user[100] averageWaitTime 0.10057286618713
scalar DatabaseNetwork.user[100] accessesPerSecond 0.0453
par DatabaseNetwork.user[101] typename "\"progetto.User\""
par DatabaseNetwork.user[101] userId 101
par DatabaseNetwork.user[101] lambda 0.05
par DatabaseNetwork.user[101] readProbability 0.7
par DatabaseNetwork.user[101] numTables 20
par DatabaseNetwork.user[101] tableDistribution "\"uniform\""
par DatabaseNetwork.user[101] serviceTime 0.1s
attr unit s
par DatabaseNetwork.user[101] lognormalM 0.5
par DatabaseNetwork.user[101] lognormalS 1
scalar DatabaseNetwork.user[101] totalAccesses 501
scalar DatabaseNetwork.user[101] totalReads 328
scalar DatabaseNetwork.user[101] totalWrites 173
scalar DatabaseNetwork.user[101] averageWaitTime 0.10177093451145
scalar DatabaseNetwork.user[101] accessesPerSecond 0.0501
par DatabaseNetwork.user[102] typename "\"progetto.User\""
par DatabaseNetwork.user[102] userId 102
par DatabaseNetwork.user[102] lambda 0.05
par DatabaseNetwork.user[102] readProbability 0.7
par DatabaseNetwork.user[102] numTables 20
par DatabaseNetwork.user[102] tableDistribution "\"uniform\""
par DatabaseNetwork.user[102] serviceTime 0.1s
attr unit s
par DatabaseNetwork.user[102] lognormalM 0.5
par DatabaseNetwork.user[102] lognormalS 1
scalar DatabaseNetwork.user[102] totalAccesses 466
scalar DatabaseNetwork.user[102] totalReads 322
scalar DatabaseNetwork.user[102] totalWrites 144
scalar DatabaseNetwork.user[102] averageWaitTime 0.10060515233556
scalar DatabaseNetwork.user[102] accessesPerSecond 0.0466
par DatabaseNetwork.user[103] typename "\"progetto.User\""
par DatabaseNetwork.user[103] userId 103
par DatabaseNetwork.user[103] lambda 0.05
par DatabaseNetwork.user[103] readProbability 0.7
par DatabaseNetwork.user[103] numTables 20
par DatabaseNetwork.user[103] tableDistribution "\"uniform\""
par DatabaseNetwork.user[103] serviceTime 0.1s
attr unit s
par DatabaseNetwork.user[103] lognormalM 0.5
par DatabaseNetwork.user[103] lognormalS 1
scalar DatabaseNetwork.user[103] totalAccesses 512
scalar DatabaseNetwork.user[103] totalReads 345
scalar DatabaseNetwork.user[103] totalWrites 167
scalar DatabaseNetwork.user[103] averageWaitTime 0.10057644193625
scalar DatabaseNetwork.user[103] accessesPerSecond 0.0512
par DatabaseNetwork.user[104] typename "\"progetto.User\""
par DatabaseNetwork.user[104] userId 104
par DatabaseNetwork.user[104] lambda 0.05
par DatabaseNetwork.user[104] readProbability 0.7
par DatabaseNetwork.user[104] numTables 20
par DatabaseNetwork.user[104] tableDistribution "\"uniform\""
par DatabaseNetwork.user[104] serviceTime 0.1s
attr unit s
par DatabaseNetwork.user[104] lognormalM 0.5
par DatabaseNetwork.user[104] lognormalS 1
scalar DatabaseNetwork.user[104] totalAccesses 511
scalar DatabaseNetwork.user[104] totalReads 361
scalar DatabaseNetwork.user[104] totalWrites 150
scalar DatabaseNetwork.user[104] averageWaitTime 0.10077032438494
scalar DatabaseNetwork.user[104] accessesPerSecond 0.0511
par DatabaseNetwork.user[105] typename "\"progetto.User\""
par DatabaseNetwork.user[105] userId 105
par DatabaseNetwork.user[105] lambda 0.05
par DatabaseNetwork.user[105] readProbability 0.7
par DatabaseNetwork.user[105] numTables 20
par DatabaseNetwork.user[105] tableDistribution "\"uniform\""
par DatabaseNetwork.user[105] serviceTime 0.1s
attr unit s
par DatabaseNetwork.user[105] lognormalM 0.5
par DatabaseNetwork.user[105] lognormalS 1
scalar DatabaseNetwork.user[105] totalAccesses 493
scalar DatabaseNetwork.user[105] totalReads 343
scalar DatabaseNetwork.user[105] totalWrites 150
scalar DatabaseNetwork.user[105] averageWaitTime 0.10125604437985
scalar DatabaseNetwork.user[105] accessesPerSecond 0.0493
par DatabaseNetwork.user[106] typename "\"progetto.User\""
par DatabaseNetwork.user[106] userId 106
par DatabaseNetwork.user[106] lambda 0.05
par DatabaseNetwork.user[106] readProbability 0.7
par DatabaseNetwork.user[106] numTables 20
par DatabaseNetwork.user[106] tableDistribution "\"uniform\""
par DatabaseNetwork.user[106] serviceTime 0.1s
attr unit s
par DatabaseNetwork.user[106] lognormalM 0.5
par DatabaseNetwork.user[106] lognormalS 1
scalar DatabaseNetwork.user[106] totalAccesses 496
scalar DatabaseNetwork.user[106] totalReads 341
scalar DatabaseNetwork.user[106] totalWrites 155
scalar DatabaseNetwork.user[106] averageWaitTime 0.10146126148612
scalar DatabaseNetwork.user[106] accessesPerSecond 0.0496
par DatabaseNetwork.user[107] typename "\"progetto.User\""
par DatabaseNetwork.user[107] userId 107
par DatabaseNetwork.user[107] lambda 0.05
par DatabaseNetwork.user[107] readProbability 0.7
par DatabaseNetwork.user[107] numTables 20
par DatabaseNetwork.user[107] tableDistribution "\"uniform\""
par DatabaseNetwork.user[107] serviceTime 0.1s
attr unit s
par DatabaseNetwork.user[107] lognormalM 0.5
par DatabaseNetwork.user[107] lognormalS 1
scalar DatabaseNetwork.user[107] totalAccesses 506
scalar DatabaseNetwork.user[107] totalReads 364
scalar DatabaseNetwork.user[107] totalWrites 142
scalar DatabaseNetwork.user[107] averageWaitTime 0.10095109893907
scalar DatabaseNetwork.user[107] accessesPerSecond 0.0506
par DatabaseNetwork.user[108] typename "\"progetto.User\""
par DatabaseNetwork.user[108] userId 108
par DatabaseNetwork.user[108] lambda 0.05
par DatabaseNetwork.user[108] readProbability 0.7
par DatabaseNetwork.user[108] numTables 20
par DatabaseNetwork.user[108] tableDistribution "\"uniform\""
par DatabaseNetwork.user[108] serviceTime 0.1s
attr unit s
par DatabaseNetwork.user[108] lognormalM 0.5
par DatabaseNetwork.user[108] lognormalS 1
scalar DatabaseNetwork.user[108] totalAccesses 475
scalar DatabaseNetwork.user[108] totalReads 318
scalar DatabaseNetwork.user[108] totalWrites 157
scalar DatabaseNetwork.user[108] averageWaitTime 0.10068182538412
scalar DatabaseNetwork.user[108] accessesPerSecond 0.0475
par DatabaseNetwork.user[109] typename "\"progetto.User\""
par DatabaseNetwork.user[109] userId 109
par DatabaseNetwork.user[109] lambda 0.05
par DatabaseNetwork.user[109] readProbability 0.7
par DatabaseNetwork.user[109] numTables 20
par DatabaseNetwork.user[109] tableDistribution "\"uniform\""
par DatabaseNetwork.user[109] serviceTime 0.1s
attr unit s
par DatabaseNetwork.user[109] lognormalM 0.5
par DatabaseNetwork.user[109] lognormalS 1
scalar DatabaseNetwork.user[109] totalAccesses 499
scalar DatabaseNetwork.user[109] totalReads 345
scalar DatabaseNetwork.user[109] totalWrites 154
scalar DatabaseNetwork.user[109] averageWaitTime 0.10093916949732
scalar DatabaseNetwork.user[109] accessesPerSecond 0.0499
par DatabaseNetwork.user[110] typename "\"progetto.User\""
par DatabaseNetwork.user[110] userId 110
par DatabaseNetwork.user[110] lambda 0.05
par DatabaseNetwork.user[110] readProbability 0.7
par DatabaseNetwork.user[110] numTables 20
par DatabaseNetwork.user[110] tableDistribution "\"uniform\""
par DatabaseNetwork.user[110] serviceTime 0.1s
attr unit s
par DatabaseNetwork.user[110] lognormalM 0.5
par DatabaseNetwork.user[110] lognormalS 1
scalar DatabaseNetwork.user[110] totalAccesses 522
scalar DatabaseNetwork.user[110] totalReads 363
scalar DatabaseNetwork.user[110] totalWrites 159
scalar DatabaseNetwork.user[110] averageWaitTime 0.10151457770194
scalar DatabaseNetwork.user[110] accessesPerSecond 0.0522
par DatabaseNetwork.user[111] typename "\"progetto.User\""
par DatabaseNetwork.user[111] userId 111
par DatabaseNetwork.user[111] lambda 0.05
par DatabaseNetwork.user[111] readProbability 0.7
par DatabaseNetwork.user[111] numTables 20
par DatabaseNetwork.user[111] tableDistribution "\"uniform\""
par DatabaseNetwork.user[111] serviceTime 0.1s
attr unit s
par DatabaseNetwork.user[111] lognormalM 0.5
par DatabaseNetwork.user[111] lognormalS 1
scalar DatabaseNetwork.user[111] totalAccesses 487
scalar DatabaseNetwork.user[111] totalReads 327
scalar DatabaseNetwork.user[111] totalWrites 160
scalar DatabaseNetwork.user[111] averageWaitTime 0.10045106727066
scalar DatabaseNetwork.user[111] accessesPerSecond 0.0487
par DatabaseNetwork.user[112] typename "\"progetto.User\""
par DatabaseNetwork.user[112] userId 112
par DatabaseNetwork.user[112] lambda 0.05
par DatabaseNetwork.user[112] readProbability 0.7
par DatabaseNetwork.user[112] numTables 20
par DatabaseNetwork.user[112] tableDistribution "\"uniform\""
par DatabaseNetwork.user[112] serviceTime 0.1s
attr unit s
[...]
par DatabaseNetwork.user[138] lognormalM 0.5
par DatabaseNetwork.user[138] lognormalS 1
scalar DatabaseNetwork.user[138] totalAccesses 511
scalar DatabaseNetwork.user[138] totalReads 365
scalar DatabaseNetwork.user[138] totalWrites 146
scalar DatabaseNetwork.user[138] averageWaitTime 0.10076786028014
scalar DatabaseNetwork.user[138] accessesPerSecond 0.0511
par DatabaseNetwork.user[139] typename "\"progetto.User\""
par DatabaseNetwork.user[139] userId 139
par DatabaseNetwork.user[139] lambda 0.05
par DatabaseNetwork.user[139] readProbability 0.7
par DatabaseNetwork.user[139] numTables 20
par DatabaseNetwork.user[139] tableDistribution "\"uniform\""
par DatabaseNetwork.user[139] serviceTime 0.1s
attr unit s
par DatabaseNetwork.user[139] lognormalM 0.5
par DatabaseNetwork.user[139] lognormalS 1
scalar DatabaseNetwork.user[139] totalAccesses 504
scalar DatabaseNetwork.user[139] totalReads 344
scalar DatabaseNetwork.user[139] totalWrites 160
scalar DatabaseNetwork.user[139] averageWaitTime 0.10079450086756
scalar DatabaseNetwork.user[139] accessesPerSecond 0.0504
par DatabaseNetwork.user[140] typename "\"progetto.User\""
par DatabaseNetwork.user[140] userId 140
par DatabaseNetwork.user[140] lambda 0.05
par DatabaseNetwork.user[140] readProbability 0.7
par DatabaseNetwork.user[140] numTables 20
par DatabaseNetwork.user[140] tableDistribution "\"uniform\""
par DatabaseNetwork.user[140] serviceTime 0.1s
attr unit s
par DatabaseNetwork.user[140] lognormalM 0.5
par DatabaseNetwork.user[140] lognormalS 1
scalar DatabaseNetwork.user[140] totalAccesses 536
scalar DatabaseNetwork.user[140] totalReads 388
scalar DatabaseNetwork.user[140] totalWrites 148
scalar DatabaseNetwork.user[140] averageWaitTime 0.10098406959113
scalar DatabaseNetwork.user[140] accessesPerSecond 0.0536
par DatabaseNetwork.user[141] typename "\"progetto.User\""
par DatabaseNetwork.user[141] userId 141
par DatabaseNetwork.user[141] lambda 0.05
par DatabaseNetwork.user[141] readProbability 0.7
par DatabaseNetwork.user[141] numTables 20
par DatabaseNetwork.user[141] tableDistribution "\"uniform\""
par DatabaseNetwork.user[141] serviceTime 0.1s
attr unit s
par DatabaseNetwork.user[141] lognormalM 0.5
par DatabaseNetwork.user[141] lognormalS 1
scalar DatabaseNetwork.user[141] totalAccesses 536
scalar DatabaseNetwork.user[141] totalReads 376
scalar DatabaseNetwork.user[141] totalWrites 160
scalar DatabaseNetwork.user[141] averageWaitTime 0.10076647598613
scalar DatabaseNetwork.user[141] accessesPerSecond 0.0536
par DatabaseNetwork.user[142] typename "\"progetto.User\""
par DatabaseNetwork.user[142] userId 142
par DatabaseNetwork.user[142] lambda 0.05
par DatabaseNetwork.user[142] readProbability 0.7
par DatabaseNetwork.user[142] numTables 20
par DatabaseNetwork.user[142] tableDistribution "\"uniform\""
par DatabaseNetwork.user[142] serviceTime 0.1s
attr unit s
par DatabaseNetwork.user[142] lognormalM 0.5
par DatabaseNetwork.user[142] lognormalS 1
scalar DatabaseNetwork.user[142] totalAccesses 516
scalar DatabaseNetwork.user[142] totalReads 375
scalar DatabaseNetwork.user[142] totalWrites 141
scalar DatabaseNetwork.user[142] averageWaitTime 0.10071042368969
scalar DatabaseNetwork.user[142] accessesPerSecond 0.0516
par DatabaseNetwork.user[143] typename "\"progetto.User\""
par DatabaseNetwork.user[143] userId 143
par DatabaseNetwork.user[143] lambda 0.05
par DatabaseNetwork.user[143] readProbability 0.7
par DatabaseNetwork.user[143] numTables 20
par DatabaseNetwork.user[143] tableDistribution "\"uniform\""
par DatabaseNetwork.user[143] serviceTime 0.1s
attr unit s
par DatabaseNetwork.user[143] lognormalM 0.5
par DatabaseNetwork.user[143] lognormalS 1
scalar DatabaseNetwork.user[143] totalAccesses 507
scalar DatabaseNetwork.user[143] totalReads 351
scalar DatabaseNetwork.user[143] totalWrites 156
scalar DatabaseNetwork.user[143] averageWaitTime 0.10133276961439
scalar DatabaseNetwork.user[143] accessesPerSecond 0.0507
par DatabaseNetwork.user[144] typename "\"progetto.User\""
par DatabaseNetwork.user[144] userId 144
par DatabaseNetwork.user[144] lambda 0.05
par DatabaseNetwork.user[144] readProbability 0.7
par DatabaseNetwork.user[144] numTables 20
par DatabaseNetwork.user[144] tableDistribution "\"uniform\""
par DatabaseNetwork.user[144] serviceTime 0.1s
attr unit s
par DatabaseNetwork.user[144] lognormalM 0.5
par DatabaseNetwork.user[144] lognormalS 1
scalar DatabaseNetwork.user[144] totalAccesses 481
scalar DatabaseNetwork.user[144] totalReads 341
scalar DatabaseNetwork.user[144] totalWrites 140
scalar DatabaseNetwork.user[144] averageWaitTime 0.10153471615795
scalar DatabaseNetwork.user[144] accessesPerSecond 0.0481
par DatabaseNetwork.user[145] typename "\"progetto.User\""
par DatabaseNetwork.user[145] userId 145
par DatabaseNetwork.user[145] lambda 0.05
par DatabaseNetwork.user[145] readProbability 0.7
par DatabaseNetwork.user[145] numTables 20
par DatabaseNetwork.user[145] tableDistribution "\"uniform\""
par DatabaseNetwork.user[145] serviceTime 0.1s
attr unit s
par DatabaseNetwork.user[145] lognormalM 0.5
par DatabaseNetwork.user[145] lognormalS 1
scalar DatabaseNetwork.user[145] totalAccesses 553
scalar DatabaseNetwork.user[145] totalReads 392
scalar DatabaseNetwork.user[145] totalWrites 161
scalar DatabaseNetwork.user[145] averageWaitTime 0.10081664347194
scalar DatabaseNetwork.user[145] accessesPerSecond 0.0553
par DatabaseNetwork.user[146] typename "\"progetto.User\""
par DatabaseNetwork.user[146] userId 146
par DatabaseNetwork.user[146] lambda 0.05
par DatabaseNetwork.user[146] readProbability 0.7
par DatabaseNetwork.user[146] numTables 20
par DatabaseNetwork.user[146] tableDistribution "\"uniform\""
par DatabaseNetwork.user[146] serviceTime 0.1s
attr unit s
par DatabaseNetwork.user[146] lognormalM 0.5
par DatabaseNetwork.user[146] lognormalS 1
scalar DatabaseNetwork.user[146] totalAccesses 520
scalar DatabaseNetwork.user[146] totalReads 374
scalar DatabaseNetwork.user[146] totalWrites 146
scalar DatabaseNetwork.user[146] averageWaitTime 0.10065445462593
scalar DatabaseNetwork.user[146] accessesPerSecond 0.052
par DatabaseNetwork.user[147] typename "\"progetto.User\""
par DatabaseNetwork.user[147] userId 147
par DatabaseNetwork.user[147] lambda 0.05
par DatabaseNetwork.user[147] readProbability 0.7
par DatabaseNetwork.user[147] numTables 20
par DatabaseNetwork.user[147] tableDistribution "\"uniform\""
par DatabaseNetwork.user[147] serviceTime 0.1s
attr unit s
par DatabaseNetwork.user[147] lognormalM 0.5
par DatabaseNetwork.user[147] lognormalS 1
scalar DatabaseNetwork.user[147] totalAccesses 469
scalar DatabaseNetwork.user[147] totalReads 328
scalar DatabaseNetwork.user[147] totalWrites 141
scalar DatabaseNetwork.user[147] averageWaitTime 0.10092900934373
scalar DatabaseNetwork.user[147] accessesPerSecond 0.0469
par DatabaseNetwork.user[148] typename "\"progetto.User\""
par DatabaseNetwork.user[148] userId 148
par DatabaseNetwork.user[148] lambda 0.05
par DatabaseNetwork.user[148] readProbability 0.7
par DatabaseNetwork.user[148] numTables 20
par DatabaseNetwork.user[148] tableDistribution "\"uniform\""
par DatabaseNetwork.user[148] serviceTime 0.1s
attr unit s
par DatabaseNetwork.user[148] lognormalM 0.5
par DatabaseNetwork.user[148] lognormalS 1
scalar DatabaseNetwork.user[148] totalAccesses 509
scalar DatabaseNetwork.user[148] totalReads 378
scalar DatabaseNetwork.user[148] totalWrites 131
scalar DatabaseNetwork.user[148] averageWaitTime 0.10069628049407
scalar DatabaseNetwork.user[148] accessesPerSecond 0.0509
par DatabaseNetwork.user[149] typename "\"progetto.User\""
par DatabaseNetwork.user[149] userId 149
par DatabaseNetwork.user[149] lambda 0.05
par DatabaseNetwork.user[149] readProbability 0.7
par DatabaseNetwork.user[149] numTables 20
par DatabaseNetwork.user[149] tableDistribution "\"uniform\""
par DatabaseNetwork.user[149] serviceTime 0.1s
attr unit s
par DatabaseNetwork.user[149] lognormalM 0.5
par DatabaseNetwork.user[149] lognormalS 1
scalar DatabaseNetwork.user[149] totalAccesses 480
scalar DatabaseNetwork.user[149] totalReads 336
scalar DatabaseNetwork.user[149] totalWrites 144
scalar DatabaseNetwork.user[149] averageWaitTime 0.101040816981
scalar DatabaseNetwork.user[149] accessesPerSecond 0.048
par DatabaseNetwork.table[0] typename "\"progetto.Table\""
par DatabaseNetwork.table[0] tableId 0
scalar DatabaseNetwork.table[0] table.totalServed 3685
scalar DatabaseNetwork.table[0] table.totalReads 2566
scalar DatabaseNetwork.table[0] table.totalWrites 1119
scalar DatabaseNetwork.table[0] table.throughput 0.3685
scalar DatabaseNetwork.table[0] table.maxQueueLength 1
scalar DatabaseNetwork.table[0] table.avgQueueLength 1
scalar DatabaseNetwork.table[0] table.avgWaitingTime 0.0010025383602709
scalar DatabaseNetwork.table[0] table.utilization 0.03650837901806
par DatabaseNetwork.table[1] typename "\"progetto.Table\""
par DatabaseNetwork.table[1] tableId 1
scalar DatabaseNetwork.table[1] table.totalServed 3761
scalar DatabaseNetwork.table[1] table.totalReads 2617
scalar DatabaseNetwork.table[1] table.totalWrites 1144
scalar DatabaseNetwork.table[1] table.throughput 0.3761
scalar DatabaseNetwork.table[1] table.maxQueueLength 1
scalar DatabaseNetwork.table[1] table.avgQueueLength 1
scalar DatabaseNetwork.table[1] table.avgWaitingTime 0.00095858618371239
scalar DatabaseNetwork.table[1] table.utilization 0.037360842971676
par DatabaseNetwork.table[2] typename "\"progetto.Table\""
par DatabaseNetwork.table[2] tableId 2
scalar DatabaseNetwork.table[2] table.totalServed 3730
scalar DatabaseNetwork.table[2] table.totalReads 2578
scalar DatabaseNetwork.table[2] table.totalWrites 1152
scalar DatabaseNetwork.table[2] table.throughput 0.373
scalar DatabaseNetwork.table[2] table.maxQueueLength 1
scalar DatabaseNetwork.table[2] table.avgQueueLength 1
scalar DatabaseNetwork.table[2] table.avgWaitingTime 0.00078419567072018
scalar DatabaseNetwork.table[2] table.utilization 0.037006724576809
par DatabaseNetwork.table[3] typename "\"progetto.Table\""
par DatabaseNetwork.table[3] tableId 3
scalar DatabaseNetwork.table[3] table.totalServed 3720
scalar DatabaseNetwork.table[3] table.totalReads 2593
scalar DatabaseNetwork.table[3] table.totalWrites 1127
scalar DatabaseNetwork.table[3] table.throughput 0.372
scalar DatabaseNetwork.table[3] table.maxQueueLength 1
scalar DatabaseNetwork.table[3] table.avgQueueLength 1
scalar DatabaseNetwork.table[3] table.avgWaitingTime 0.00084410450921698
scalar DatabaseNetwork.table[3] table.utilization 0.036849794691633
par DatabaseNetwork.table[4] typename "\"progetto.Table\""
par DatabaseNetwork.table[4] tableId 4
scalar DatabaseNetwork.table[4] table.totalServed 3676
scalar DatabaseNetwork.table[4] table.totalReads 2595
scalar DatabaseNetwork.table[4] table.totalWrites 1081
scalar DatabaseNetwork.table[4] table.throughput 0.3676
scalar DatabaseNetwork.table[4] table.maxQueueLength 2
scalar DatabaseNetwork.table[4] table.avgQueueLength 1.0002720348205
scalar DatabaseNetwork.table[4] table.avgWaitingTime 0.00093203719071989
scalar DatabaseNetwork.table[4] table.utilization 0.036455054899748
par DatabaseNetwork.table[5] typename "\"progetto.Table\""
par DatabaseNetwork.table[5] tableId 5
scalar DatabaseNetwork.table[5] table.totalServed 3708
scalar DatabaseNetwork.table[5] table.totalReads 2552
scalar DatabaseNetwork.table[5] table.totalWrites 1156
scalar DatabaseNetwork.table[5] table.throughput 0.3708
scalar DatabaseNetwork.table[5] table.maxQueueLength 1
scalar DatabaseNetwork.table[5] table.avgQueueLength 1
scalar DatabaseNetwork.table[5] table.avgWaitingTime 0.00078441545118818
scalar DatabaseNetwork.table[5] table.utilization 0.036793186995754
par DatabaseNetwork.table[6] typename "\"progetto.Table\""
par DatabaseNetwork.table[6] tableId 6
scalar DatabaseNetwork.table[6] table.totalServed 3776
scalar DatabaseNetwork.table[6] table.totalReads 2676
scalar DatabaseNetwork.table[6] table.totalWrites 1100
scalar DatabaseNetwork.table[6] table.throughput 0.3776
scalar DatabaseNetwork.table[6] table.maxQueueLength 2
scalar DatabaseNetwork.table[6] table.avgQueueLength 1.0005296610169
scalar DatabaseNetwork.table[6] table.avgWaitingTime 0.0010908275811789
scalar DatabaseNetwork.table[6] table.utilization 0.037457393394852
par DatabaseNetwork.table[7] typename "\"progetto.Table\""
par DatabaseNetwork.table[7] tableId 7
scalar DatabaseNetwork.table[7] table.totalServed 3717
scalar DatabaseNetwork.table[7] table.totalReads 2574
scalar DatabaseNetwork.table[7] table.totalWrites 1143
scalar DatabaseNetwork.table[7] table.throughput 0.3717
scalar DatabaseNetwork.table[7] table.maxQueueLength 2
scalar DatabaseNetwork.table[7] table.avgQueueLength 1.0002690341673
scalar DatabaseNetwork.table[7] table.avgWaitingTime 0.0009518424925671
scalar DatabaseNetwork.table[7] table.utilization 0.036848356704881
par DatabaseNetwork.table[8] typename "\"progetto.Table\""
par DatabaseNetwork.table[8] tableId 8
scalar DatabaseNetwork.table[8] table.totalServed 3793
scalar DatabaseNetwork.table[8] table.totalReads 2643
scalar DatabaseNetwork.table[8] table.totalWrites 1150
scalar DatabaseNetwork.table[8] table.throughput 0.3793
scalar DatabaseNetwork.table[8] table.maxQueueLength 2
scalar DatabaseNetwork.table[8] table.avgQueueLength 1.0007909306617
scalar DatabaseNetwork.table[8] table.avgWaitingTime 0.0010705775610208
scalar DatabaseNetwork.table[8] table.utilization 0.03745506426838
par DatabaseNetwork.table[9] typename "\"progetto.Table\""
par DatabaseNetwork.table[9] tableId 9
scalar DatabaseNetwork.table[9] table.totalServed 3715
scalar DatabaseNetwork.table[9] table.totalReads 2568
scalar DatabaseNetwork.table[9] table.totalWrites 1147
scalar DatabaseNetwork.table[9] table.throughput 0.3715
scalar DatabaseNetwork.table[9] table.maxQueueLength 1
scalar DatabaseNetwork.table[9] table.avgQueueLength 1
scalar DatabaseNetwork.table[9] table.avgWaitingTime 0.00076235863891272
scalar DatabaseNetwork.table[9] table.utilization 0.03683726619719
par DatabaseNetwork.table[10] typename "\"progetto.Table\""
par DatabaseNetwork.table[10] tableId 10
scalar DatabaseNetwork.table[10] table.totalServed 3709
scalar DatabaseNetwork.table[10] table.totalReads 2614
scalar DatabaseNetwork.table[10] table.totalWrites 1095
scalar DatabaseNetwork.table[10] table.throughput 0.3709
scalar DatabaseNetwork.table[10] table.maxQueueLength 2
scalar DatabaseNetwork.table[10] table.avgQueueLength 1.0005392289027
scalar DatabaseNetwork.table[10] table.avgWaitingTime 0.0011222976432514
scalar DatabaseNetwork.table[10] table.utilization 0.036775816671752
par DatabaseNetwork.table[11] typename "\"progetto.Table\""
par DatabaseNetwork.table[11] tableId 11
scalar DatabaseNetwork.table[11] table.totalServed 3791
scalar DatabaseNetwork.table[11] table.totalReads 2689
scalar DatabaseNetwork.table[11] table.totalWrites 1102
scalar DatabaseNetwork.table[11] table.throughput 0.3791
scalar DatabaseNetwork.table[11] table.maxQueueLength 2
scalar DatabaseNetwork.table[11] table.avgQueueLength 1.0010551305724
scalar DatabaseNetwork.table[11] table.avgWaitingTime 0.0010622151955142
scalar DatabaseNetwork.table[11] table.utilization 0.037500348133642
par DatabaseNetwork.table[12] typename "\"progetto.Table\""
par DatabaseNetwork.table[12] tableId 12
scalar DatabaseNetwork.table[12] table.totalServed 3851
scalar DatabaseNetwork.table[12] table.totalReads 2645
scalar DatabaseNetwork.table[12] table.totalWrites 1206
scalar DatabaseNetwork.table[12] table.throughput 0.3851
scalar DatabaseNetwork.table[12] table.maxQueueLength 2
scalar DatabaseNetwork.table[12] table.avgQueueLength 1.0002596728123
scalar DatabaseNetwork.table[12] table.avgWaitingTime 0.00099632656913
scalar DatabaseNetwork.table[12] table.utilization 0.038123996617711
par DatabaseNetwork.table[13] typename "\"progetto.Table\""
par DatabaseNetwork.table[13] tableId 13
scalar DatabaseNetwork.table[13] table.totalServed 3798
scalar DatabaseNetwork.table[13] table.totalReads 2656
scalar DatabaseNetwork.table[13] table.totalWrites 1142
scalar DatabaseNetwork.table[13] table.throughput 0.3798
scalar DatabaseNetwork.table[13] table.maxQueueLength 2
scalar DatabaseNetwork.table[13] table.avgQueueLength 1.0005265929437
scalar DatabaseNetwork.table[13] table.avgWaitingTime 0.00092929779223644
scalar DatabaseNetwork.table[13] table.utilization 0.037618726946042
par DatabaseNetwork.table[14] typename "\"progetto.Table\""
par DatabaseNetwork.table[14] tableId 14
scalar DatabaseNetwork.table[14] table.totalServed 3696
scalar DatabaseNetwork.table[14] table.totalReads 2600
scalar DatabaseNetwork.table[14] table.totalWrites 1096
scalar DatabaseNetwork.table[14] table.throughput 0.3696
scalar DatabaseNetwork.table[14] table.maxQueueLength 2
scalar DatabaseNetwork.table[14] table.avgQueueLength 1.0008116883117
scalar DatabaseNetwork.table[14] table.avgWaitingTime 0.00097385059142742
scalar DatabaseNetwork.table[14] table.utilization 0.036581344668875
par DatabaseNetwork.table[15] typename "\"progetto.Table\""
par DatabaseNetwork.table[15] tableId 15
scalar DatabaseNetwork.table[15] table.totalServed 3749
scalar DatabaseNetwork.table[15] table.totalReads 2630
scalar DatabaseNetwork.table[15] table.totalWrites 1119
scalar DatabaseNetwork.table[15] table.throughput 0.3749
scalar DatabaseNetwork.table[15] table.maxQueueLength 1
scalar DatabaseNetwork.table[15] table.avgQueueLength 1
scalar DatabaseNetwork.table[15] table.avgWaitingTime 0.00069006960940393
scalar DatabaseNetwork.table[15] table.utilization 0.037137827346858
par DatabaseNetwork.table[16] typename "\"progetto.Table\""
par DatabaseNetwork.table[16] tableId 16
scalar DatabaseNetwork.table[16] table.totalServed 3758
scalar DatabaseNetwork.table[16] table.totalReads 2651
scalar DatabaseNetwork.table[16] table.totalWrites 1107
scalar DatabaseNetwork.table[16] table.throughput 0.3758
scalar DatabaseNetwork.table[16] table.maxQueueLength 2
scalar DatabaseNetwork.table[16] table.avgQueueLength 1.0007982969665
scalar DatabaseNetwork.table[16] table.avgWaitingTime 0.0010237834197183
scalar DatabaseNetwork.table[16] table.utilization 0.03725573004694
par DatabaseNetwork.table[17] typename "\"progetto.Table\""
par DatabaseNetwork.table[17] tableId 17
scalar DatabaseNetwork.table[17] table.totalServed 3783
scalar DatabaseNetwork.table[17] table.totalReads 2653
scalar DatabaseNetwork.table[17] table.totalWrites 1130
scalar DatabaseNetwork.table[17] table.throughput 0.3783
scalar DatabaseNetwork.table[17] table.maxQueueLength 1
scalar DatabaseNetwork.table[17] table.avgQueueLength 1
scalar DatabaseNetwork.table[17] table.avgWaitingTime 0.0009231279043184
scalar DatabaseNetwork.table[17] table.utilization 0.037554144758398
par DatabaseNetwork.table[18] typename "\"progetto.Table\""
par DatabaseNetwork.table[18] tableId 18
scalar DatabaseNetwork.table[18] table.totalServed 3602
scalar DatabaseNetwork.table[18] table.totalReads 2516
scalar DatabaseNetwork.table[18] table.totalWrites 1086
scalar DatabaseNetwork.table[18] table.throughput 0.3602
scalar DatabaseNetwork.table[18] table.maxQueueLength 2
scalar DatabaseNetwork.table[18] table.avgQueueLength 1.0002776235425
scalar DatabaseNetwork.table[18] table.avgWaitingTime 0.0011780066684185
scalar DatabaseNetwork.table[18] table.utilization 0.035640330517284
par DatabaseNetwork.table[19] typename "\"progetto.Table\""
par DatabaseNetwork.table[19] tableId 19
scalar DatabaseNetwork.table[19] table.totalServed 3707
scalar DatabaseNetwork.table[19] table.totalReads 2591
scalar DatabaseNetwork.table[19] table.totalWrites 1116
scalar DatabaseNetwork.table[19] table.throughput 0.3707
scalar DatabaseNetwork.table[19] table.maxQueueLength 2
scalar DatabaseNetwork.table[19] table.avgQueueLength 1.0002697599137
scalar DatabaseNetwork.table[19] table.avgWaitingTime 0.00097251614202292
scalar DatabaseNetwork.table[19] table.utilization 0.036745784445789
par DatabaseNetwork typename "\"progetto.DatabaseNetwork\""
par DatabaseNetwork numUsers 150
par DatabaseNetwork numTables 20

