version 3
run Uniform-100-20260105-17:01:10-25051
attr configname Uniform
attr datetime 20260105-17:01:10
attr datetimef 20260105-170110
attr experiment Uniform
attr inifile omnetpp.ini
attr iterationvars "$N=200, $p=0.3"
attr iterationvarsd N=200/p=0.3
attr iterationvarsf N=200,p=0.3-
attr measurement "$N=200, $p=0.3"
attr network progetto.DatabaseNetwork
attr processid 25051
attr repetition 0
attr replication #0
attr resultdir results
attr runnumber 100
attr seedset 0
itervar N 200
itervar p 0.3
config description "Uniform distribution - varia N e p"
config *.user[*].tableDistribution "\"uniform\""
config *.numUsers 200
config *.user[*].readProbability 0.3
config network progetto.DatabaseNetwork
config sim-time-limit 10000s
config cpu-time-limit 3600s
config repeat 5
config seed-set 0
config output-vector-file "results/Uniform-$N=200, $p=0.3-0.vec"
config output-scalar-file "results/Uniform-$N=200, $p=0.3-0.sca"
config result-dir results
config **.vector-recording true
config **.scalar-recording true
config *.numTables 20
config *.user[*].lambda 0.05
config *.user[*].serviceTime 0.1s

par DatabaseNetwork.user[0] typename "\"progetto.User\""
par DatabaseNetwork.user[0] userId 0
par DatabaseNetwork.user[0] lambda 0.05
par DatabaseNetwork.user[0] readProbability 0.3
par DatabaseNetwork.user[0] numTables 20
par DatabaseNetwork.user[0] tableDistribution "\"uniform\""
par DatabaseNetwork.user[0] serviceTime 0.1s
attr unit s
par DatabaseNetwork.user[0] lognormalM 0.5
par DatabaseNetwork.user[0] lognormalS 1
scalar DatabaseNetwork.user[0] totalAccesses 532
scalar DatabaseNetwork.user[0] totalReads 149
scalar DatabaseNetwork.user[0] totalWrites 383
scalar DatabaseNetwork.user[0] averageWaitTime 0.10179975559658
scalar DatabaseNetwork.user[0] accessesPerSecond 0.0532
par DatabaseNetwork.user[1] typename "\"progetto.User\""
par DatabaseNetwork.user[1] userId 1
par DatabaseNetwork.user[1] lambda 0.05
par DatabaseNetwork.user[1] readProbability 0.3
par DatabaseNetwork.user[1] numTables 20
par DatabaseNetwork.user[1] tableDistribution "\"uniform\""
par DatabaseNetwork.user[1] serviceTime 0.1s
attr unit s
par DatabaseNetwork.user[1] lognormalM 0.5
par DatabaseNetwork.user[1] lognormalS 1
scalar DatabaseNetwork.user[1] totalAccesses 506
scalar DatabaseNetwork.user[1] totalReads 152
scalar DatabaseNetwork.user[1] totalWrites 354
scalar DatabaseNetwork.user[1] averageWaitTime 0.10290677709776
scalar DatabaseNetwork.user[1] accessesPerSecond 0.0506
par DatabaseNetwork.user[2] typename "\"progetto.User\""
par DatabaseNetwork.user[2] userId 2
par DatabaseNetwork.user[2] lambda 0.05
par DatabaseNetwork.user[2] readProbability 0.3
par DatabaseNetwork.user[2] numTables 20
par DatabaseNetwork.user[2] tableDistribution "\"uniform\""
par DatabaseNetwork.user[2] serviceTime 0.1s
attr unit s
par DatabaseNetwork.user[2] lognormalM 0.5
par DatabaseNetwork.user[2] lognormalS 1
scalar DatabaseNetwork.user[2] totalAccesses 542
scalar DatabaseNetwork.user[2] totalReads 156
scalar DatabaseNetwork.user[2] totalWrites 386
scalar DatabaseNetwork.user[2] averageWaitTime 0.10285094079622
scalar DatabaseNetwork.user[2] accessesPerSecond 0.0542
par DatabaseNetwork.user[3] typename "\"progetto.User\""
par DatabaseNetwork.user[3] userId 3
par DatabaseNetwork.user[3] lambda 0.05
par DatabaseNetwork.user[3] readProbability 0.3
par DatabaseNetwork.user[3] numTables 20
par DatabaseNetwork.user[3] tableDistribution "\"uniform\""
par DatabaseNetwork.user[3] serviceTime 0.1s
attr unit s
par DatabaseNetwork.user[3] lognormalM 0.5
par DatabaseNetwork.user[3] lognormalS 1
scalar DatabaseNetwork.user[3] totalAccesses 506
scalar DatabaseNetwork.user[3] totalReads 137
scalar DatabaseNetwork.user[3] totalWrites 369
scalar DatabaseNetwork.user[3] averageWaitTime 0.10144164180064
scalar DatabaseNetwork.user[3] accessesPerSecond 0.0506
par DatabaseNetwork.user[4] typename "\"progetto.User\""
par DatabaseNetwork.user[4] userId 4
par DatabaseNetwork.user[4] lambda 0.05
par DatabaseNetwork.user[4] readProbability 0.3
par DatabaseNetwork.user[4] numTables 20
par DatabaseNetwork.user[4] tableDistribution "\"uniform\""
par DatabaseNetwork.user[4] serviceTime 0.1s
attr unit s
par DatabaseNetwork.user[4] lognormalM 0.5
par DatabaseNetwork.user[4] lognormalS 1
scalar DatabaseNetwork.user[4] totalAccesses 473
scalar DatabaseNetwork.user[4] totalReads 145
scalar DatabaseNetwork.user[4] totalWrites 328
scalar DatabaseNetwork.user[4] averageWaitTime 0.10256908482661
scalar DatabaseNetwork.user[4] accessesPerSecond 0.0473
par DatabaseNetwork.user[5] typename "\"progetto.User\""
par DatabaseNetwork.user[5] userId 5
par DatabaseNetwork.user[5] lambda 0.05
par DatabaseNetwork.user[5] readProbability 0.3
par DatabaseNetwork.user[5] numTables 20
par DatabaseNetwork.user[5] tableDistribution "\"uniform\""
par DatabaseNetwork.user[5] serviceTime 0.1s
attr unit s
par DatabaseNetwork.user[5] lognormalM 0.5
par DatabaseNetwork.user[5] lognormalS 1
scalar DatabaseNetwork.user[5] totalAccesses 505
scalar DatabaseNetwork.user[5] totalReads 143
scalar DatabaseNetwork.user[5] totalWrites 362
scalar DatabaseNetwork.user[5] averageWaitTime 0.102124832432
scalar DatabaseNetwork.user[5] accessesPerSecond 0.0505
par DatabaseNetwork.user[6] typename "\"progetto.User\""
par DatabaseNetwork.user[6] userId 6
par DatabaseNetwork.user[6] lambda 0.05
par DatabaseNetwork.user[6] readProbability 0.3
par DatabaseNetwork.user[6] numTables 20
par DatabaseNetwork.user[6] tableDistribution "\"uniform\""
par DatabaseNetwork.user[6] serviceTime 0.1s
attr unit s
par DatabaseNetwork.user[6] lognormalM 0.5
par DatabaseNetwork.user[6] lognormalS 1
scalar DatabaseNetwork.user[6] totalAccesses 502
scalar DatabaseNetwork.user[6] totalReads 166
scalar DatabaseNetwork.user[6] totalWrites 336
scalar DatabaseNetwork.user[6] averageWaitTime 0.10247165724548
scalar DatabaseNetwork.user[6] accessesPerSecond 0.0502
par DatabaseNetwork.user[7] typename "\"progetto.User\""
par DatabaseNetwork.user[7] userId 7
par DatabaseNetwork.user[7] lambda 0.05
par DatabaseNetwork.user[7] readProbability 0.3
par DatabaseNetwork.user[7] numTables 20
par DatabaseNetwork.user[7] tableDistribution "\"uniform\""
par DatabaseNetwork.user[7] serviceTime 0.1s
attr unit s
par DatabaseNetwork.user[7] lognormalM 0.5
par DatabaseNetwork.user[7] lognormalS 1
scalar DatabaseNetwork.user[7] totalAccesses 517
scalar DatabaseNetwork.user[7] totalReads 137
scalar DatabaseNetwork.user[7] totalWrites 380
scalar DatabaseNetwork.user[7] averageWaitTime 0.10311785351904
scalar DatabaseNetwork.user[7] accessesPerSecond 0.0517
par DatabaseNetwork.user[8] typename "\"progetto.User\""
par DatabaseNetwork.user[8] userId 8
par DatabaseNetwork.user[8] lambda 0.05
par DatabaseNetwork.user[8] readProbability 0.3
par DatabaseNetwork.user[8] numTables 20
par DatabaseNetwork.user[8] tableDistribution "\"uniform\""
par DatabaseNetwork.user[8] serviceTime 0.1s
attr unit s
par DatabaseNetwork.user[8] lognormalM 0.5
par DatabaseNetwork.user[8] lognormalS 1
scalar DatabaseNetwork.user[8] totalAccesses 524
scalar DatabaseNetwork.user[8] totalReads 154
scalar DatabaseNetwork.user[8] totalWrites 370
scalar DatabaseNetwork.user[8] averageWaitTime 0.10180413913422
scalar DatabaseNetwork.user[8] accessesPerSecond 0.0524
par DatabaseNetwork.user[9] typename "\"progetto.User\""
par DatabaseNetwork.user[9] userId 9
par DatabaseNetwork.user[9] lambda 0.05
par DatabaseNetwork.user[9] readProbability 0.3
par DatabaseNetwork.user[9] numTables 20
par DatabaseNetwork.user[9] tableDistribution "\"uniform\""
par DatabaseNetwork.user[9] serviceTime 0.1s
attr unit s
par DatabaseNetwork.user[9] lognormalM 0.5
par DatabaseNetwork.user[9] lognormalS 1
scalar DatabaseNetwork.user[9] totalAccesses 480
scalar DatabaseNetwork.user[9] totalReads 131
scalar DatabaseNetwork.user[9] totalWrites 349
scalar DatabaseNetwork.user[9] averageWaitTime 0.10260946638094
scalar DatabaseNetwork.user[9] accessesPerSecond 0.048
par DatabaseNetwork.user[10] typename "\"progetto.User\""
par DatabaseNetwork.user[10] userId 10
par DatabaseNetwork.user[10] lambda 0.05
par DatabaseNetwork.user[10] readProbability 0.3
par DatabaseNetwork.user[10] numTables 20
par DatabaseNetwork.user[10] tableDistribution "\"uniform\""
par DatabaseNetwork.user[10] serviceTime 0.1s
attr unit s
par DatabaseNetwork.user[10] lognormalM 0.5
par DatabaseNetwork.user[10] lognormalS 1
scalar DatabaseNetwork.user[10] totalAccesses 502
scalar DatabaseNetwork.user[10] totalReads 145
scalar DatabaseNetwork.user[10] totalWrites 357
scalar DatabaseNetwork.user[10] averageWaitTime 0.10225346746394
scalar DatabaseNetwork.user[10] accessesPerSecond 0.0502
par DatabaseNetwork.user[11] typename "\"progetto.User\""
par DatabaseNetwork.user[11] userId 11
par DatabaseNetwork.user[11] lambda 0.05
par DatabaseNetwork.user[11] readProbability 0.3
par DatabaseNetwork.user[11] numTables 20
par DatabaseNetwork.user[11] tableDistribution "\"uniform\""
par DatabaseNetwork.user[11] serviceTime 0.1s
attr unit s
par DatabaseNetwork.user[11] lognormalM 0.5
par DatabaseNetwork.user[11] lognormalS 1
scalar DatabaseNetwork.user[11] totalAccesses 513
scalar DatabaseNetwork.user[11] totalReads 153
scalar DatabaseNetwork.user[11] totalWrites 360
scalar DatabaseNetwork.user[11] averageWaitTime 0.10197169911891
scalar DatabaseNetwork.user[11] accessesPerSecond 0.0513
par DatabaseNetwork.user[12] typename "\"progetto.User\""
par DatabaseNetwork.user[12] userId 12
par DatabaseNetwork.user[12] lambda 0.05
par DatabaseNetwork.user[12] readProbability 0.3
par DatabaseNetwork.user[12] numTables 20
par DatabaseNetwork.user[12] tableDistribution "\"uniform\""
par DatabaseNetwork.user[12] serviceTime 0.1s
attr unit s
par DatabaseNetwork.user[12] lognormalM 0.5
par DatabaseNetwork.user[12] lognormalS 1
scalar DatabaseNetwork.user[12] totalAccesses 499
scalar DatabaseNetwork.user[12] totalReads 149
scalar DatabaseNetwork.user[12] totalWrites 350
scalar DatabaseNetwork.user[12] averageWaitTime 0.10334502917326
scalar DatabaseNetwork.user[12] accessesPerSecond 0.0499
par DatabaseNetwork.user[13] typename "\"progetto.User\""
par DatabaseNetwork.user[13] userId 13
par DatabaseNetwork.user[13] lambda 0.05
par DatabaseNetwork.user[13] readProbability 0.3
par DatabaseNetwork.user[13] numTables 20
par DatabaseNetwork.user[13] tableDistribution "\"uniform\""
par DatabaseNetwork.user[13] serviceTime 0.1s
attr unit s
par DatabaseNetwork.user[13] lognormalM 0.5
par DatabaseNetwork.user[13] lognormalS 1
scalar DatabaseNetwork.user[13] totalAccesses 531
scalar DatabaseNetwork.user[13] totalReads 154
scalar DatabaseNetwork.user[13] totalWrites 377
scalar DatabaseNetwork.user[13] averageWaitTime 0.10269497267852
scalar DatabaseNetwork.user[13] accessesPerSecond 0.0531
par DatabaseNetwork.user[14] typename "\"progetto.User\""
par DatabaseNetwork.user[14] userId 14
par DatabaseNetwork.user[14] lambda 0.05
par DatabaseNetwork.user[14] readProbability 0.3
par DatabaseNetwork.user[14] numTables 20
par DatabaseNetwork.user[14] tableDistribution "\"uniform\""
par DatabaseNetwork.user[14] serviceTime 0.1s
attr unit s
par DatabaseNetwork.user[14] lognormalM 0.5
par DatabaseNetwork.user[14] lognormalS 1
scalar DatabaseNetwork.user[14] totalAccesses 461
scalar DatabaseNetwork.user[14] totalReads 137
scalar DatabaseNetwork.user[14] totalWrites 324
scalar DatabaseNetwork.user[14] averageWaitTime 0.10205161226439
scalar DatabaseNetwork.user[14] accessesPerSecond 0.0461
par DatabaseNetwork.user[15] typename "\"progetto.User\""
par DatabaseNetwork.user[15] userId 15
par DatabaseNetwork.user[15] lambda 0.05
par DatabaseNetwork.user[15] readProbability 0.3
par DatabaseNetwork.user[15] numTables 20
par DatabaseNetwork.user[15] tableDistribution "\"uniform\""
par DatabaseNetwork.user[15] serviceTime 0.1s
attr unit s
par DatabaseNetwork.user[15] lognormalM 0.5
par DatabaseNetwork.user[15] lognormalS 1
scalar DatabaseNetwork.user[15] totalAccesses 534
scalar DatabaseNetwork.user[15] totalReads 162
scalar DatabaseNetwork.user[15] totalWrites 372
scalar DatabaseNetwork.user[15] averageWaitTime 0.10269039473746
scalar DatabaseNetwork.user[15] accessesPerSecond 0.0534
par DatabaseNetwork.user[16] typename "\"progetto.User\""
par DatabaseNetwork.user[16] userId 16
par DatabaseNetwork.user[16] lambda 0.05
par DatabaseNetwork.user[16] readProbability 0.3
par DatabaseNetwork.user[16] numTables 20
par DatabaseNetwork.user[16] tableDistribution "\"uniform\""
par DatabaseNetwork.user[16] serviceTime 0.1s
attr unit s
par DatabaseNetwork.user[16] lognormalM 0.5
par DatabaseNetwork.user[16] lognormalS 1
scalar DatabaseNetwork.user[16] totalAccesses 515
scalar DatabaseNetwork.user[16] totalReads 142
scalar DatabaseNetwork.user[16] totalWrites 373
scalar DatabaseNetwork.user[16] averageWaitTime 0.10318516264845
scalar DatabaseNetwork.user[16] accessesPerSecond 0.0515
par DatabaseNetwork.user[17] typename "\"progetto.User\""
par DatabaseNetwork.user[17] userId 17
par DatabaseNetwork.user[17] lambda 0.05
par DatabaseNetwork.user[17] readProbability 0.3
par DatabaseNetwork.user[17] numTables 20
par DatabaseNetwork.user[17] tableDistribution "\"uniform\""
par DatabaseNetwork.user[17] serviceTime 0.1s
attr unit s
par DatabaseNetwork.user[17] lognormalM 0.5
par DatabaseNetwork.user[17] lognormalS 1
scalar DatabaseNetwork.user[17] totalAccesses 475
scalar DatabaseNetwork.user[17] totalReads 147
scalar DatabaseNetwork.user[17] totalWrites 328
scalar DatabaseNetwork.user[17] averageWaitTime 0.10131210173782
scalar DatabaseNetwork.user[17] accessesPerSecond 0.0475
par DatabaseNetwork.user[18] typename "\"progetto.User\""
par DatabaseNetwork.user[18] userId 18
par DatabaseNetwork.user[18] lambda 0.05
par DatabaseNetwork.user[18] readProbability 0.3
par DatabaseNetwork.user[18] numTables 20
par DatabaseNetwork.user[18] tableDistribution "\"uniform\""
par DatabaseNetwork.user[18] serviceTime 0.1s
attr unit s
par DatabaseNetwork.user[18] lognormalM 0.5
par DatabaseNetwork.user[18] lognormalS 1
scalar DatabaseNetwork.user[18] totalAccesses 509
scalar DatabaseNetwork.user[18] totalReads 152
scalar DatabaseNetwork.user[18] totalWrites 357
scalar DatabaseNetwork.user[18] averageWaitTime 0.10285415893615
scalar DatabaseNetwork.user[18] accessesPerSecond 0.0509
par DatabaseNetwork.user[19] typename "\"progetto.User\""
par DatabaseNetwork.user[19] userId 19
par DatabaseNetwork.user[19] lambda 0.05
par DatabaseNetwork.user[19] readProbability 0.3
par DatabaseNetwork.user[19] numTables 20
par DatabaseNetwork.user[19] tableDistribution "\"uniform\""
par DatabaseNetwork.user[19] serviceTime 0.1s
attr unit s
par DatabaseNetwork.user[19] lognormalM 0.5
par DatabaseNetwork.user[19] lognormalS 1
scalar DatabaseNetwork.user[19] totalAccesses 495
scalar DatabaseNetwork.user[19] totalReads 153
scalar DatabaseNetwork.user[19] totalWrites 342
scalar DatabaseNetwork.user[19] averageWaitTime 0.10240374119121
scalar DatabaseNetwork.user[19] accessesPerSecond 0.0495
par DatabaseNetwork.user[20] typename "\"progetto.User\""
par DatabaseNetwork.user[20] userId 20
par DatabaseNetwork.user[20] lambda 0.05
par DatabaseNetwork.user[20] readProbability 0.3
par DatabaseNetwork.user[20] numTables 20
par DatabaseNetwork.user[20] tableDistribution "\"uniform\""
par DatabaseNetwork.user[20] serviceTime 0.1s
attr unit s
par DatabaseNetwork.user[20] lognormalM 0.5
par DatabaseNetwork.user[20] lognormalS 1
scalar DatabaseNetwork.user[20] totalAccesses 472
scalar DatabaseNetwork.user[20] totalReads 149
scalar DatabaseNetwork.user[20] totalWrites 323
scalar DatabaseNetwork.user[20] averageWaitTime 0.1019685283003
scalar DatabaseNetwork.user[20] accessesPerSecond 0.0472
par DatabaseNetwork.user[21] typename "\"progetto.User\""
par DatabaseNetwork.user[21] userId 21
par DatabaseNetwork.user[21] lambda 0.05
par DatabaseNetwork.user[21] readProbability 0.3
par DatabaseNetwork.user[21] numTables 20
par DatabaseNetwork.user[21] tableDistribution "\"uniform\""
par DatabaseNetwork.user[21] serviceTime 0.1s
attr unit s
par DatabaseNetwork.user[21] lognormalM 0.5
par DatabaseNetwork.user[21] lognormalS 1
scalar DatabaseNetwork.user[21] totalAccesses 480
scalar DatabaseNetwork.user[21] totalReads 143
scalar DatabaseNetwork.user[21] totalWrites 337
scalar DatabaseNetwork.user[21] averageWaitTime 0.10332555611913
scalar DatabaseNetwork.user[21] accessesPerSecond 0.048
par DatabaseNetwork.user[22] typename "\"progetto.User\""
par DatabaseNetwork.user[22] userId 22
par DatabaseNetwork.user[22] lambda 0.05
par DatabaseNetwork.user[22] readProbability 0.3
par DatabaseNetwork.user[22] numTables 20
par DatabaseNetwork.user[22] tableDistribution "\"uniform\""
par DatabaseNetwork.user[22] serviceTime 0.1s
attr unit s
par DatabaseNetwork.user[22] lognormalM 0.5
par DatabaseNetwork.user[22] lognormalS 1
scalar DatabaseNetwork.user[22] totalAccesses 532
scalar DatabaseNetwork.user[22] totalReads 167
scalar DatabaseNetwork.user[22] totalWrites 365
scalar DatabaseNetwork.user[22] averageWaitTime 0.10214862210624
scalar DatabaseNetwork.user[22] accessesPerSecond 0.0532
par DatabaseNetwork.user[23] typename "\"progetto.User\""
par DatabaseNetwork.user[23] userId 23
par DatabaseNetwork.user[23] lambda 0.05
par DatabaseNetwork.user[23] readProbability 0.3
par DatabaseNetwork.user[23] numTables 20
par DatabaseNetwork.user[23] tableDistribution "\"uniform\""
par DatabaseNetwork.user[23] serviceTime 0.1s
attr unit s
par DatabaseNetwork.user[23] lognormalM 0.5
par DatabaseNetwork.user[23] lognormalS 1
scalar DatabaseNetwork.user[23] totalAccesses 473
scalar DatabaseNetwork.user[23] totalReads 141
scalar DatabaseNetwork.user[23] totalWrites 332
scalar DatabaseNetwork.user[23] averageWaitTime 0.10239289533587
scalar DatabaseNetwork.user[23] accessesPerSecond 0.0473
par DatabaseNetwork.user[24] typename "\"progetto.User\""
par DatabaseNetwork.user[24] userId 24
par DatabaseNetwork.user[24] lambda 0.05
par DatabaseNetwork.user[24] readProbability 0.3
par DatabaseNetwork.user[24] numTables 20
par DatabaseNetwork.user[24] tableDistribution "\"uniform\""
par DatabaseNetwork.user[24] serviceTime 0.1s
attr unit s
par DatabaseNetwork.user[24] lognormalM 0.5
par DatabaseNetwork.user[24] lognormalS 1
scalar DatabaseNetwork.user[24] totalAccesses 481
scalar DatabaseNetwork.user[24] totalReads 141
scalar DatabaseNetwork.user[24] totalWrites 340
scalar DatabaseNetwork.user[24] averageWaitTime 0.102363951877
scalar DatabaseNetwork.user[24] accessesPerSecond 0.0481
par DatabaseNetwork.user[25] typename "\"progetto.User\""
par DatabaseNetwork.user[25] userId 25
par DatabaseNetwork.user[25] lambda 0.05
par DatabaseNetwork.user[25] readProbability 0.3
par DatabaseNetwork.user[25] numTables 20
par DatabaseNetwork.user[25] tableDistribution "\"uniform\""
par DatabaseNetwork.user[25] serviceTime 0.1s
attr unit s
par DatabaseNetwork.user[25] lognormalM 0.5
par DatabaseNetwork.user[25] lognormalS 1
scalar DatabaseNetwork.user[25] totalAccesses 502
scalar DatabaseNetwork.user[25] totalReads 157
scalar DatabaseNetwork.user[25] totalWrites 345
scalar DatabaseNetwork.user[25] averageWaitTime 0.102418569549
scalar DatabaseNetwork.user[25] accessesPerSecond 0.0502
par DatabaseNetwork.user[26] typename "\"progetto.User\""
par DatabaseNetwork.user[26] userId 26
par DatabaseNetwork.user[26] lambda 0.05
par DatabaseNetwork.user[26] readProbability 0.3
par DatabaseNetwork.user[26] numTables 20
par DatabaseNetwork.user[26] tableDistribution "\"uniform\""
par DatabaseNetwork.user[26] serviceTime 0.1s
attr unit s
par DatabaseNetwork.user[26] lognormalM 0.5
par DatabaseNetwork.user[26] lognormalS 1
scalar DatabaseNetwork.user[26] totalAccesses 501
scalar DatabaseNetwork.user[26] totalReads 152
scalar DatabaseNetwork.user[26] totalWrites 349
scalar DatabaseNetwork.user[26] averageWaitTime 0.10202807472756
scalar DatabaseNetwork.user[26] accessesPerSecond 0.0501
par DatabaseNetwork.user[27] typename "\"progetto.User\""
par DatabaseNetwork.user[27] userId 27
par DatabaseNetwork.user[27] lambda 0.05
par DatabaseNetwork.user[27] readProbability 0.3
par DatabaseNetwork.user[27] numTables 20
par DatabaseNetwork.user[27] tableDistribution "\"uniform\""
par DatabaseNetwork.user[27] serviceTime 0.1s
attr unit s
par DatabaseNetwork.user[27] lognormalM 0.5
par DatabaseNetwork.user[27] lognormalS 1
scalar DatabaseNetwork.user[27] totalAccesses 483
scalar DatabaseNetwork.user[27] totalReads 137
scalar DatabaseNetwork.user[27] totalWrites 346
scalar DatabaseNetwork.user[27] averageWaitTime 0.10313788293446
scalar DatabaseNetwork.user[27] accessesPerSecond 0.0483
par DatabaseNetwork.user[28] typename "\"progetto.User\""
par DatabaseNetwork.user[28] userId 28
par DatabaseNetwork.user[28] lambda 0.05
par DatabaseNetwork.user[28] readProbability 0.3
par DatabaseNetwork.user[28] numTables 20
par DatabaseNetwork.user[28] tableDistribution "\"uniform\""
par DatabaseNetwork.user[28] serviceTime 0.1s
attr unit s
par DatabaseNetwork.user[28] lognormalM 0.5
par DatabaseNetwork.user[28] lognormalS 1
scalar DatabaseNetwork.user[28] totalAccesses 488
scalar DatabaseNetwork.user[28] totalReads 154
scalar DatabaseNetwork.user[28] totalWrites 334
scalar DatabaseNetwork.user[28] averageWaitTime 0.10280548364138
scalar DatabaseNetwork.user[28] accessesPerSecond 0.0488
par DatabaseNetwork.user[29] typename "\"progetto.User\""
par DatabaseNetwork.user[29] userId 29
par DatabaseNetwork.user[29] lambda 0.05
par DatabaseNetwork.user[29] readProbability 0.3
par DatabaseNetwork.user[29] numTables 20
par DatabaseNetwork.user[29] tableDistribution "\"uniform\""
par DatabaseNetwork.user[29] serviceTime 0.1s
attr unit s
par DatabaseNetwork.user[29] lognormalM 0.5
par DatabaseNetwork.user[29] lognormalS 1
scalar DatabaseNetwork.user[29] totalAccesses 507
scalar DatabaseNetwork.user[29] totalReads 144
scalar DatabaseNetwork.user[29] totalWrites 363
scalar DatabaseNetwork.user[29] averageWaitTime 0.10268995480673
scalar DatabaseNetwork.user[29] accessesPerSecond 0.0507
par DatabaseNetwork.user[30] typename "\"progetto.User\""
par DatabaseNetwork.user[30] userId 30
par DatabaseNetwork.user[30] lambda 0.05
par DatabaseNetwork.user[30] readProbability 0.3
par DatabaseNetwork.user[30] numTables 20
par DatabaseNetwork.user[30] tableDistribution "\"uniform\""
par DatabaseNetwork.user[30] serviceTime 0.1s
attr unit s
par DatabaseNetwork.user[30] lognormalM 0.5
par DatabaseNetwork.user[30] lognormalS 1
scalar DatabaseNetwork.user[30] totalAccesses 496
scalar DatabaseNetwork.user[30] totalReads 140
scalar DatabaseNetwork.user[30] totalWrites 356
scalar DatabaseNetwork.user[30] averageWaitTime 0.10271309901638
scalar DatabaseNetwork.user[30] accessesPerSecond 0.0496
par DatabaseNetwork.user[31] typename "\"progetto.User\""
par DatabaseNetwork.user[31] userId 31
par DatabaseNetwork.user[31] lambda 0.05
par DatabaseNetwork.user[31] readProbability 0.3
par DatabaseNetwork.user[31] numTables 20
par DatabaseNetwork.user[31] tableDistribution "\"uniform\""
par DatabaseNetwork.user[31] serviceTime 0.1s
attr unit s
par DatabaseNetwork.user[31] lognormalM 0.5
par DatabaseNetwork.user[31] lognormalS 1
scalar DatabaseNetwork.user[31] totalAccesses 494
scalar DatabaseNetwork.user[31] totalReads 147
scalar DatabaseNetwork.user[31] totalWrites 347
scalar DatabaseNetwork.user[31] averageWaitTime 0.10224808210958
scalar DatabaseNetwork.user[31] accessesPerSecond 0.0494
par DatabaseNetwork.user[32] typename "\"progetto.User\""
par DatabaseNetwork.user[32] userId 32
par DatabaseNetwork.user[32] lambda 0.05
par DatabaseNetwork.user[32] readProbability 0.3
par DatabaseNetwork.user[32] numTables 20
par DatabaseNetwork.user[32] tableDistribution "\"uniform\""
par DatabaseNetwork.user[32] serviceTime 0.1s
attr unit s
par DatabaseNetwork.user[32] lognormalM 0.5
par DatabaseNetwork.user[32] lognormalS 1
scalar DatabaseNetwork.user[32] totalAccesses 500
scalar DatabaseNetwork.user[32] totalReads 152
scalar DatabaseNetwork.user[32] totalWrites 348
scalar DatabaseNetwork.user[32] averageWaitTime 0.10264548775746
scalar DatabaseNetwork.user[32] accessesPerSecond 0.05
par DatabaseNetwork.user[33] typename "\"progetto.User\""
par DatabaseNetwork.user[33] userId 33
par DatabaseNetwork.user[33] lambda 0.05
par DatabaseNetwork.user[33] readProbability 0.3
par DatabaseNetwork.user[33] numTables 20
par DatabaseNetwork.user[33] tableDistribution "\"uniform\""
par DatabaseNetwork.user[33] serviceTime 0.1s
attr unit s
par DatabaseNetwork.user[33] lognormalM 0.5
par DatabaseNetwork.user[33] lognormalS 1
scalar DatabaseNetwork.user[33] totalAccesses 468
scalar DatabaseNetwork.user[33] totalReads 142
scalar DatabaseNetwork.user[33] totalWrites 326
scalar DatabaseNetwork.user[33] averageWaitTime 0.1016076615482
scalar DatabaseNetwork.user[33] accessesPerSecond 0.0468
par DatabaseNetwork.user[34] typename "\"progetto.User\""
par DatabaseNetwork.user[34] userId 34
par DatabaseNetwork.user[34] lambda 0.05
par DatabaseNetwork.user[34] readProbability 0.3
par DatabaseNetwork.user[34] numTables 20
par DatabaseNetwork.user[34] tableDistribution "\"uniform\""
par DatabaseNetwork.user[34] serviceTime 0.1s
attr unit s
par DatabaseNetwork.user[34] lognormalM 0.5
par DatabaseNetwork.user[34] lognormalS 1
scalar DatabaseNetwork.user[34] totalAccesses 494
scalar DatabaseNetwork.user[34] totalReads 154
scalar DatabaseNetwork.user[34] totalWrites 340
scalar DatabaseNetwork.user[34] averageWaitTime 0.10195572455438
scalar DatabaseNetwork.user[34] accessesPerSecond 0.0494
par DatabaseNetwork.user[35] typename "\"progetto.User\""
par DatabaseNetwork.user[35] userId 35
par DatabaseNetwork.user[35] lambda 0.05
par DatabaseNetwork.user[35] readProbability 0.3
par DatabaseNetwork.user[35] numTables 20
par DatabaseNetwork.user[35] tableDistribution "\"uniform\""
par DatabaseNetwork.user[35] serviceTime 0.1s
attr unit s
par DatabaseNetwork.user[35] lognormalM 0.5
par DatabaseNetwork.user[35] lognormalS 1
scalar DatabaseNetwork.user[35] totalAccesses 487
scalar DatabaseNetwork.user[35] totalReads 155
scalar DatabaseNetwork.user[35] totalWrites 332
scalar DatabaseNetwork.user[35] averageWaitTime 0.10148556001738
scalar DatabaseNetwork.user[35] accessesPerSecond 0.0487
par DatabaseNetwork.user[36] typename "\"progetto.User\""
par DatabaseNetwork.user[36] userId 36
par DatabaseNetwork.user[36] lambda 0.05
par DatabaseNetwork.user[36] readProbability 0.3
par DatabaseNetwork.user[36] numTables 20
par DatabaseNetwork.user[36] tableDistribution "\"uniform\""
par DatabaseNetwork.user[36] serviceTime 0.1s
attr unit s
par DatabaseNetwork.user[36] lognormalM 0.5
par DatabaseNetwork.user[36] lognormalS 1
scalar DatabaseNetwork.user[36] totalAccesses 489
scalar DatabaseNetwork.user[36] totalReads 143
scalar DatabaseNetwork.user[36] totalWrites 346
scalar DatabaseNetwork.user[36] averageWaitTime 0.10201732486856
scalar DatabaseNetwork.user[36] accessesPerSecond 0.0489
par DatabaseNetwork.user[37] typename "\"progetto.User\""
par DatabaseNetwork.user[37] userId 37
par DatabaseNetwork.user[37] lambda 0.05
par DatabaseNetwork.user[37] readProbability 0.3
par DatabaseNetwork.user[37] numTables 20
par DatabaseNetwork.user[37] tableDistribution "\"uniform\""
par DatabaseNetwork.user[37] serviceTime 0.1s
attr unit s
par DatabaseNetwork.user[37] lognormalM 0.5
par DatabaseNetwork.user[37] lognormalS 1
scalar DatabaseNetwork.user[37] totalAccesses 488
scalar DatabaseNetwork.user[37] totalReads 138
scalar DatabaseNetwork.user[37] totalWrites 350
scalar DatabaseNetwork.user[37] averageWaitTime 0.10218380225308
scalar DatabaseNetwork.user[37] accessesPerSecond 0.0488
par DatabaseNetwork.user[38] typename "\"progetto.User\""
par DatabaseNetwork.user[38] userId 38
par DatabaseNetwork.user[38] lambda 0.05
par DatabaseNetwork.user[38] readProbability 0.3
par DatabaseNetwork.user[38] numTables 20
par DatabaseNetwork.user[38] tableDistribution "\"uniform\""
par DatabaseNetwork.user[38] serviceTime 0.1s
attr unit s
par DatabaseNetwork.user[38] lognormalM 0.5
par DatabaseNetwork.user[38] lognormalS 1
scalar DatabaseNetwork.user[38] totalAccesses 471
scalar DatabaseNetwork.user[38] totalReads 133
scalar DatabaseNetwork.user[38] totalWrites 338
scalar DatabaseNetwork.user[38] averageWaitTime 0.10224107824087
scalar DatabaseNetwork.user[38] accessesPerSecond 0.0471
par DatabaseNetwork.user[39] typename "\"progetto.User\""
par DatabaseNetwork.user[39] userId 39
par DatabaseNetwork.user[39] lambda 0.05
par DatabaseNetwork.user[39] readProbability 0.3
par DatabaseNetwork.user[39] numTables 20
par DatabaseNetwork.user[39] tableDistribution "\"uniform\""
par DatabaseNetwork.user[39] serviceTime 0.1s
attr unit s
par DatabaseNetwork.user[39] lognormalM 0.5
par DatabaseNetwork.user[39] lognormalS 1
scalar DatabaseNetwork.user[39] totalAccesses 494
scalar DatabaseNetwork.user[39] totalReads 168
scalar DatabaseNetwork.user[39] totalWrites 326
scalar DatabaseNetwork.user[39] averageWaitTime 0.10215697357036
scalar DatabaseNetwork.user[39] accessesPerSecond 0.0494
par DatabaseNetwork.user[40] typename "\"progetto.User\""
par DatabaseNetwork.user[40] userId 40
par DatabaseNetwork.user[40] lambda 0.05
par DatabaseNetwork.user[40] readProbability 0.3
par DatabaseNetwork.user[40] numTables 20
par DatabaseNetwork.user[40] tableDistribution "\"uniform\""
par DatabaseNetwork.user[40] serviceTime 0.1s
attr unit s
par DatabaseNetwork.user[40] lognormalM 0.5
par DatabaseNetwork.user[40] lognormalS 1
scalar DatabaseNetwork.user[40] totalAccesses 473
scalar DatabaseNetwork.user[40] totalReads 147
scalar DatabaseNetwork.user[40] totalWrites 326
scalar DatabaseNetwork.user[40] averageWaitTime 0.10251277130974
scalar DatabaseNetwork.user[40] accessesPerSecond 0.0473
par DatabaseNetwork.user[41] typename "\"progetto.User\""
par DatabaseNetwork.user[41] userId 41
par DatabaseNetwork.user[41] lambda 0.05
par DatabaseNetwork.user[41] readProbability 0.3
par DatabaseNetwork.user[41] numTables 20
par DatabaseNetwork.user[41] tableDistribution "\"uniform\""
par DatabaseNetwork.user[41] serviceTime 0.1s
attr unit s
par DatabaseNetwork.user[41] lognormalM 0.5
par DatabaseNetwork.user[41] lognormalS 1
scalar DatabaseNetwork.user[41] totalAccesses 486
scalar DatabaseNetwork.user[41] totalReads 125
scalar DatabaseNetwork.user[41] totalWrites 361
scalar DatabaseNetwork.user[41] averageWaitTime 0.10247359099652
scalar DatabaseNetwork.user[41] accessesPerSecond 0.0486
par DatabaseNetwork.user[42] typename "\"progetto.User\""
par DatabaseNetwork.user[42] userId 42
par DatabaseNetwork.user[42] lambda 0.05
par DatabaseNetwork.user[42] readProbability 0.3
par DatabaseNetwork.user[42] numTables 20
par DatabaseNetwork.user[42] tableDistribution "\"uniform\""
par DatabaseNetwork.user[42] serviceTime 0.1s
attr unit s
par DatabaseNetwork.user[42] lognormalM 0.5
par DatabaseNetwork.user[42] lognormalS 1
scalar DatabaseNetwork.user[42] totalAccesses 512
scalar DatabaseNetwork.user[42] totalReads 171
scalar DatabaseNetwork.user[42] totalWrites 341
scalar DatabaseNetwork.user[42] averageWaitTime 0.10253371504174
scalar DatabaseNetwork.user[42] accessesPerSecond 0.0512
par DatabaseNetwork.user[43] typename "\"progetto.User\""
par DatabaseNetwork.user[43] userId 43
par DatabaseNetwork.user[43] lambda 0.05
par DatabaseNetwork.user[43] readProbability 0.3
par DatabaseNetwork.user[43] numTables 20
par DatabaseNetwork.user[43] tableDistribution "\"uniform\""
par DatabaseNetwork.user[43] serviceTime 0.1s
attr unit s
par DatabaseNetwork.user[43] lognormalM 0.5
par DatabaseNetwork.user[43] lognormalS 1
scalar DatabaseNetwork.user[43] totalAccesses 534
scalar DatabaseNetwork.user[43] totalReads 162
scalar DatabaseNetwork.user[43] totalWrites 372
scalar DatabaseNetwork.user[43] averageWaitTime 0.10316462365349
scalar DatabaseNetwork.user[43] accessesPerSecond 0.0534
par DatabaseNetwork.user[44] typename "\"progetto.User\""
par DatabaseNetwork.user[44] userId 44
par DatabaseNetwork.user[44] lambda 0.05
par DatabaseNetwork.user[44] readProbability 0.3
par DatabaseNetwork.user[44] numTables 20
par DatabaseNetwork.user[44] tableDistribution "\"uniform\""
par DatabaseNetwork.user[44] serviceTime 0.1s
attr unit s
par DatabaseNetwork.user[44] lognormalM 0.5
par DatabaseNetwork.user[44] lognormalS 1
scalar DatabaseNetwork.user[44] totalAccesses 480
scalar DatabaseNetwork.user[44] totalReads 145
scalar DatabaseNetwork.user[44] totalWrites 335
scalar DatabaseNetwork.user[44] averageWaitTime 0.10221181979661
scalar DatabaseNetwork.user[44] accessesPerSecond 0.048
par DatabaseNetwork.user[45] typename "\"progetto.User\""
par DatabaseNetwork.user[45] userId 45
par DatabaseNetwork.user[45] lambda 0.05
par DatabaseNetwork.user[45] readProbability 0.3
par DatabaseNetwork.user[45] numTables 20
par DatabaseNetwork.user[45] tableDistribution "\"uniform\""
par DatabaseNetwork.user[45] serviceTime 0.1s
attr unit s
par DatabaseNetwork.user[45] lognormalM 0.5
par DatabaseNetwork.user[45] lognormalS 1
scalar DatabaseNetwork.user[45] totalAccesses 490
scalar DatabaseNetwork.user[45] totalReads 145
scalar DatabaseNetwork.user[45] totalWrites 345
scalar DatabaseNetwork.user[45] averageWaitTime 0.10253428122489
scalar DatabaseNetwork.user[45] accessesPerSecond 0.049
par DatabaseNetwork.user[46] typename "\"progetto.User\""
par DatabaseNetwork.user[46] userId 46
par DatabaseNetwork.user[46] lambda 0.05
par DatabaseNetwork.user[46] readProbability 0.3
par DatabaseNetwork.user[46] numTables 20
par DatabaseNetwork.user[46] tableDistribution "\"uniform\""
par DatabaseNetwork.user[46] serviceTime 0.1s
attr unit s
par DatabaseNetwork.user[46] lognormalM 0.5
par DatabaseNetwork.user[46] lognormalS 1
scalar DatabaseNetwork.user[46] totalAccesses 518
scalar DatabaseNetwork.user[46] totalReads 160
scalar DatabaseNetwork.user[46] totalWrites 358
scalar DatabaseNetwork.user[46] averageWaitTime 0.10376981853413
scalar DatabaseNetwork.user[46] accessesPerSecond 0.0518
par DatabaseNetwork.user[47] typename "\"progetto.User\""
par DatabaseNetwork.user[47] userId 47
par DatabaseNetwork.user[47] lambda 0.05
par DatabaseNetwork.user[47] readProbability 0.3
par DatabaseNetwork.user[47] numTables 20
par DatabaseNetwork.user[47] tableDistribution "\"uniform\""
par DatabaseNetwork.user[47] serviceTime 0.1s
attr unit s
par DatabaseNetwork.user[47] lognormalM 0.5
par DatabaseNetwork.user[47] lognormalS 1
scalar DatabaseNetwork.user[47] totalAccesses 511
scalar DatabaseNetwork.user[47] totalReads 180
scalar DatabaseNetwork.user[47] totalWrites 331
scalar DatabaseNetwork.user[47] averageWaitTime 0.10270130649432
scalar DatabaseNetwork.user[47] accessesPerSecond 0.0511
par DatabaseNetwork.user[48] typename "\"progetto.User\""
par DatabaseNetwork.user[48] userId 48
par DatabaseNetwork.user[48] lambda 0.05
par DatabaseNetwork.user[48] readProbability 0.3
par DatabaseNetwork.user[48] numTables 20
par DatabaseNetwork.user[48] tableDistribution "\"uniform\""
par DatabaseNetwork.user[48] serviceTime 0.1s
attr unit s
par DatabaseNetwork.user[48] lognormalM 0.5
par DatabaseNetwork.user[48] lognormalS 1
scalar DatabaseNetwork.user[48] totalAccesses 515
scalar DatabaseNetwork.user[48] totalReads 150
scalar DatabaseNetwork.user[48] totalWrites 365
scalar DatabaseNetwork.user[48] averageWaitTime 0.1028418420808
scalar DatabaseNetwork.user[48] accessesPerSecond 0.0515
par DatabaseNetwork.user[49] typename "\"progetto.User\""
par DatabaseNetwork.user[49] userId 49
par DatabaseNetwork.user[49] lambda 0.05
par DatabaseNetwork.user[49] readProbability 0.3
par DatabaseNetwork.user[49] numTables 20
par DatabaseNetwork.user[49] tableDistribution "\"uniform\""
par DatabaseNetwork.user[49] serviceTime 0.1s
attr unit s
par DatabaseNetwork.user[49] lognormalM 0.5
par DatabaseNetwork.user[49] lognormalS 1
scalar DatabaseNetwork.user[49] totalAccesses 559
scalar DatabaseNetwork.user[49] totalReads 175
scalar DatabaseNetwork.user[49] totalWrites 384
scalar DatabaseNetwork.user[49] averageWaitTime 0.10194030158372
scalar DatabaseNetwork.user[49] accessesPerSecond 0.0559
par DatabaseNetwork.user[50] typename "\"progetto.User\""
par DatabaseNetwork.user[50] userId 50
par DatabaseNetwork.user[50] lambda 0.05
par DatabaseNetwork.user[50] readProbability 0.3
par DatabaseNetwork.user[50] numTables 20
par DatabaseNetwork.user[50] tableDistribution "\"uniform\""
par DatabaseNetwork.user[50] serviceTime 0.1s
attr unit s
par DatabaseNetwork.user[50] lognormalM 0.5
par DatabaseNetwork.user[50] lognormalS 1
scalar DatabaseNetwork.user[50] totalAccesses 484
scalar DatabaseNetwork.user[50] totalReads 159
scalar DatabaseNetwork.user[50] totalWrites 325
scalar DatabaseNetwork.user[50] averageWaitTime 0.10288164025239
scalar DatabaseNetwork.user[50] accessesPerSecond 0.0484
par DatabaseNetwork.user[51] typename "\"progetto.User\""
par DatabaseNetwork.user[51] userId 51
par DatabaseNetwork.user[51] lambda 0.05
par DatabaseNetwork.user[51] readProbability 0.3
par DatabaseNetwork.user[51] numTables 20
par DatabaseNetwork.user[51] tableDistribution "\"uniform\""
par DatabaseNetwork.user[51] serviceTime 0.1s
attr unit s
par DatabaseNetwork.user[51] lognormalM 0.5
par DatabaseNetwork.user[51] lognormalS 1
scalar DatabaseNetwork.user[51] totalAccesses 524
scalar DatabaseNetwork.user[51] totalReads 152
scalar DatabaseNetwork.user[51] totalWrites 372
scalar DatabaseNetwork.user[51] averageWaitTime 0.10220376155626
scalar DatabaseNetwork.user[51] accessesPerSecond 0.0524
par DatabaseNetwork.user[52] typename "\"progetto.User\""
par DatabaseNetwork.user[52] userId 52
par DatabaseNetwork.user[52] lambda 0.05
par DatabaseNetwork.user[52] readProbability 0.3
par DatabaseNetwork.user[52] numTables 20
par DatabaseNetwork.user[52] tableDistribution "\"uniform\""
par DatabaseNetwork.user[52] serviceTime 0.1s
attr unit s
par DatabaseNetwork.user[52] lognormalM 0.5
par DatabaseNetwork.user[52] lognormalS 1
scalar DatabaseNetwork.user[52] totalAccesses 497
scalar DatabaseNetwork.user[52] totalReads 132
scalar DatabaseNetwork.user[52] totalWrites 365
scalar DatabaseNetwork.user[52] averageWaitTime 0.10163112796286
scalar DatabaseNetwork.user[52] accessesPerSecond 0.0497
par DatabaseNetwork.user[53] typename "\"progetto.User\""
par DatabaseNetwork.user[53] userId 53
par DatabaseNetwork.user[53] lambda 0.05
par DatabaseNetwork.user[53] readProbability 0.3
par DatabaseNetwork.user[53] numTables 20
par DatabaseNetwork.user[53] tableDistribution "\"uniform\""
par DatabaseNetwork.user[53] serviceTime 0.1s
attr unit s
par DatabaseNetwork.user[53] lognormalM 0.5
par DatabaseNetwork.user[53] lognormalS 1
scalar DatabaseNetwork.user[53] totalAccesses 513
scalar DatabaseNetwork.user[53] totalReads 123
scalar DatabaseNetwork.user[53] totalWrites 390
scalar DatabaseNetwork.user[53] averageWaitTime 0.1026047985486
scalar DatabaseNetwork.user[53] accessesPerSecond 0.0513
par DatabaseNetwork.user[54] typename "\"progetto.User\""
par DatabaseNetwork.user[54] userId 54
par DatabaseNetwork.user[54] lambda 0.05
par DatabaseNetwork.user[54] readProbability 0.3
par DatabaseNetwork.user[54] numTables 20
par DatabaseNetwork.user[54] tableDistribution "\"uniform\""
par DatabaseNetwork.user[54] serviceTime 0.1s
attr unit s
par DatabaseNetwork.user[54] lognormalM 0.5
par DatabaseNetwork.user[54] lognormalS 1
scalar DatabaseNetwork.user[54] totalAccesses 532
scalar DatabaseNetwork.user[54] totalReads 142
scalar DatabaseNetwork.user[54] totalWrites 390
scalar DatabaseNetwork.user[54] averageWaitTime 0.10237893062586
scalar DatabaseNetwork.user[54] accessesPerSecond 0.0532
par DatabaseNetwork.user[55] typename "\"progetto.User\""
par DatabaseNetwork.user[55] userId 55
par DatabaseNetwork.user[55] lambda 0.05
par DatabaseNetwork.user[55] readProbability 0.3
par DatabaseNetwork.user[55] numTables 20
par DatabaseNetwork.user[55] tableDistribution "\"uniform\""
par DatabaseNetwork.user[55] serviceTime 0.1s
attr unit s
par DatabaseNetwork.user[55] lognormalM 0.5
par DatabaseNetwork.user[55] lognormalS 1
scalar DatabaseNetwork.user[55] totalAccesses 526
scalar DatabaseNetwork.user[55] totalReads 160
scalar DatabaseNetwork.user[55] totalWrites 366
scalar DatabaseNetwork.user[55] averageWaitTime 0.10123972973909
scalar DatabaseNetwork.user[55] accessesPerSecond 0.0526
par DatabaseNetwork.user[56] typename "\"progetto.User\""
par DatabaseNetwork.user[56] userId 56
par DatabaseNetwork.user[56] lambda 0.05
par DatabaseNetwork.user[56] readProbability 0.3
par DatabaseNetwork.user[56] numTables 20
par DatabaseNetwork.user[56] tableDistribution "\"uniform\""
par DatabaseNetwork.user[56] serviceTime 0.1s
attr unit s
par DatabaseNetwork.user[56] lognormalM 0.5
par DatabaseNetwork.user[56] lognormalS 1
scalar DatabaseNetwork.user[56] totalAccesses 461
scalar DatabaseNetwork.user[56] totalReads 128
scalar DatabaseNetwork.user[56] totalWrites 333
scalar DatabaseNetwork.user[56] averageWaitTime 0.101894179267
scalar DatabaseNetwork.user[56] accessesPerSecond 0.0461
par DatabaseNetwork.user[57] typename "\"progetto.User\""
par DatabaseNetwork.user[57] userId 57
par DatabaseNetwork.user[57] lambda 0.05
par DatabaseNetwork.user[57] readProbability 0.3
par DatabaseNetwork.user[57] numTables 20
par DatabaseNetwork.user[57] tableDistribution "\"uniform\""
par DatabaseNetwork.user[57] serviceTime 0.1s
attr unit s
par DatabaseNetwork.user[57] lognormalM 0.5
par DatabaseNetwork.user[57] lognormalS 1
scalar DatabaseNetwork.user[57] totalAccesses 530
scalar DatabaseNetwork.user[57] totalReads 160
scalar DatabaseNetwork.user[57] totalWrites 370
scalar DatabaseNetwork.user[57] averageWaitTime 0.10285889471571
scalar DatabaseNetwork.user[57] accessesPerSecond 0.053
par DatabaseNetwork.user[58] typename "\"progetto.User\""
par DatabaseNetwork.user[58] userId 58
par DatabaseNetwork.user[58] lambda 0.05
par DatabaseNetwork.user[58] readProbability 0.3
par DatabaseNetwork.user[58] numTables 20
par DatabaseNetwork.user[58] tableDistribution "\"uniform\""
par DatabaseNetwork.user[58] serviceTime 0.1s
attr unit s
par DatabaseNetwork.user[58] lognormalM 0.5
par DatabaseNetwork.user[58] lognormalS 1
scalar DatabaseNetwork.user[58] totalAccesses 508
scalar DatabaseNetwork.user[58] totalReads 149
scalar DatabaseNetwork.user[58] totalWrites 359
scalar DatabaseNetwork.user[58] averageWaitTime 0.10340071346828
scalar DatabaseNetwork.user[58] accessesPerSecond 0.0508
par DatabaseNetwork.user[59] typename "\"progetto.User\""
par DatabaseNetwork.user[59] userId 59
par DatabaseNetwork.user[59] lambda 0.05
par DatabaseNetwork.user[59] readProbability 0.3
par DatabaseNetwork.user[59] numTables 20
par DatabaseNetwork.user[59] tableDistribution "\"uniform\""
par DatabaseNetwork.user[59] serviceTime 0.1s
attr unit s
par DatabaseNetwork.user[59] lognormalM 0.5
par DatabaseNetwork.user[59] lognormalS 1
scalar DatabaseNetwork.user[59] totalAccesses 488
scalar DatabaseNetwork.user[59] totalReads 163
scalar DatabaseNetwork.user[59] totalWrites 325
scalar DatabaseNetwork.user[59] averageWaitTime 0.10219674237792
scalar DatabaseNetwork.user[59] accessesPerSecond 0.0488
par DatabaseNetwork.user[60] typename "\"progetto.User\""
par DatabaseNetwork.user[60] userId 60
par DatabaseNetwork.user[60] lambda 0.05
par DatabaseNetwork.user[60] readProbability 0.3
par DatabaseNetwork.user[60] numTables 20
par DatabaseNetwork.user[60] tableDistribution "\"uniform\""
par DatabaseNetwork.user[60] serviceTime 0.1s
attr unit s
par DatabaseNetwork.user[60] lognormalM 0.5
par DatabaseNetwork.user[60] lognormalS 1
scalar DatabaseNetwork.user[60] totalAccesses 494
scalar DatabaseNetwork.user[60] totalReads 139
scalar DatabaseNetwork.user[60] totalWrites 355
scalar DatabaseNetwork.user[60] averageWaitTime 0.10299924260832
scalar DatabaseNetwork.user[60] accessesPerSecond 0.0494
par DatabaseNetwork.user[61] typename "\"progetto.User\""
par DatabaseNetwork.user[61] userId 61
par DatabaseNetwork.user[61] lambda 0.05
par DatabaseNetwork.user[61] readProbability 0.3
par DatabaseNetwork.user[61] numTables 20
par DatabaseNetwork.user[61] tableDistribution "\"uniform\""
par DatabaseNetwork.user[61] serviceTime 0.1s
attr unit s
par DatabaseNetwork.user[61] lognormalM 0.5
par DatabaseNetwork.user[61] lognormalS 1
scalar DatabaseNetwork.user[61] totalAccesses 487
scalar DatabaseNetwork.user[61] totalReads 145
scalar DatabaseNetwork.user[61] totalWrites 342
scalar DatabaseNetwork.user[61] averageWaitTime 0.10314425953354
scalar DatabaseNetwork.user[61] accessesPerSecond 0.0487
par DatabaseNetwork.user[62] typename "\"progetto.User\""
par DatabaseNetwork.user[62] userId 62
par DatabaseNetwork.user[62] lambda 0.05
par DatabaseNetwork.user[62] readProbability 0.3
par DatabaseNetwork.user[62] numTables 20
par DatabaseNetwork.user[62] tableDistribution "\"uniform\""
par DatabaseNetwork.user[62] serviceTime 0.1s
attr unit s
par DatabaseNetwork.user[62] lognormalM 0.5
par DatabaseNetwork.user[62] lognormalS 1
scalar DatabaseNetwork.user[62] totalAccesses 456
scalar DatabaseNetwork.user[62] totalReads 146
scalar DatabaseNetwork.user[62] totalWrites 310
scalar DatabaseNetwork.user[62] averageWaitTime 0.10148597683461
scalar DatabaseNetwork.user[62] accessesPerSecond 0.0456
par DatabaseNetwork.user[63] typename "\"progetto.User\""
par DatabaseNetwork.user[63] userId 63
par DatabaseNetwork.user[63] lambda 0.05
par DatabaseNetwork.user[63] readProbability 0.3
par DatabaseNetwork.user[63] numTables 20
par DatabaseNetwork.user[63] tableDistribution "\"uniform\""
par DatabaseNetwork.user[63] serviceTime 0.1s
attr unit s
par DatabaseNetwork.user[63] lognormalM 0.5
par DatabaseNetwork.user[63] lognormalS 1
scalar DatabaseNetwork.user[63] totalAccesses 519
scalar DatabaseNetwork.user[63] totalReads 149
scalar DatabaseNetwork.user[63] totalWrites 370
scalar DatabaseNetwork.user[63] averageWaitTime 0.10113481221993
scalar DatabaseNetwork.user[63] accessesPerSecond 0.0519
par DatabaseNetwork.user[64] typename "\"progetto.User\""
par DatabaseNetwork.user[64] userId 64
par DatabaseNetwork.user[64] lambda 0.05
par DatabaseNetwork.user[64] readProbability 0.3
par DatabaseNetwork.user[64] numTables 20
par DatabaseNetwork.user[64] tableDistribution "\"uniform\""
par DatabaseNetwork.user[64] serviceTime 0.1s
attr unit s
par DatabaseNetwork.user[64] lognormalM 0.5
par DatabaseNetwork.user[64] lognormalS 1
scalar DatabaseNetwork.user[64] totalAccesses 471
scalar DatabaseNetwork.user[64] totalReads 149
scalar DatabaseNetwork.user[64] totalWrites 322
scalar DatabaseNetwork.user[64] averageWaitTime 0.10189081964621
scalar DatabaseNetwork.user[64] accessesPerSecond 0.0471
par DatabaseNetwork.user[65] typename "\"progetto.User\""
par DatabaseNetwork.user[65] userId 65
par DatabaseNetwork.user[65] lambda 0.05
par DatabaseNetwork.user[65] readProbability 0.3
par DatabaseNetwork.user[65] numTables 20
par DatabaseNetwork.user[65] tableDistribution "\"uniform\""
par DatabaseNetwork.user[65] serviceTime 0.1s
attr unit s
par DatabaseNetwork.user[65] lognormalM 0.5
par DatabaseNetwork.user[65] lognormalS 1
scalar DatabaseNetwork.user[65] totalAccesses 499
scalar DatabaseNetwork.user[65] totalReads 152
scalar DatabaseNetwork.user[65] totalWrites 347
scalar DatabaseNetwork.user[65] averageWaitTime 0.1017329833537
scalar DatabaseNetwork.user[65] accessesPerSecond 0.0499
par DatabaseNetwork.user[66] typename "\"progetto.User\""
par DatabaseNetwork.user[66] userId 66
par DatabaseNetwork.user[66] lambda 0.05
par DatabaseNetwork.user[66] readProbability 0.3
par DatabaseNetwork.user[66] numTables 20
par DatabaseNetwork.user[66] tableDistribution "\"uniform\""
par DatabaseNetwork.user[66] serviceTime 0.1s
attr unit s
par DatabaseNetwork.user[66] lognormalM 0.5
par DatabaseNetwork.user[66] lognormalS 1
scalar DatabaseNetwork.user[66] totalAccesses 504
scalar DatabaseNetwork.user[66] totalReads 148
scalar DatabaseNetwork.user[66] totalWrites 356
scalar DatabaseNetwork.user[66] averageWaitTime 0.10203814397589
scalar DatabaseNetwork.user[66] accessesPerSecond 0.0504
par DatabaseNetwork.user[67] typename "\"progetto.User\""
par DatabaseNetwork.user[67] userId 67
par DatabaseNetwork.user[67] lambda 0.05
par DatabaseNetwork.user[67] readProbability 0.3
par DatabaseNetwork.user[67] numTables 20
par DatabaseNetwork.user[67] tableDistribution "\"uniform\""
par DatabaseNetwork.user[67] serviceTime 0.1s
attr unit s
par DatabaseNetwork.user[67] lognormalM 0.5
par DatabaseNetwork.user[67] lognormalS 1
scalar DatabaseNetwork.user[67] totalAccesses 475
scalar DatabaseNetwork.user[67] totalReads 142
scalar DatabaseNetwork.user[67] totalWrites 333
scalar DatabaseNetwork.user[67] averageWaitTime 0.10220331584682
scalar DatabaseNetwork.user[67] accessesPerSecond 0.0475
par DatabaseNetwork.user[68] typename "\"progetto.User\""
par DatabaseNetwork.user[68] userId 68
par DatabaseNetwork.user[68] lambda 0.05
par DatabaseNetwork.user[68] readProbability 0.3
par DatabaseNetwork.user[68] numTables 20
par DatabaseNetwork.user[68] tableDistribution "\"uniform\""
par DatabaseNetwork.user[68] serviceTime 0.1s
attr unit s
par DatabaseNetwork.user[68] lognormalM 0.5
par DatabaseNetwork.user[68] lognormalS 1
scalar DatabaseNetwork.user[68] totalAccesses 493
scalar DatabaseNetwork.user[68] totalReads 144
scalar DatabaseNetwork.user[68] totalWrites 349
scalar DatabaseNetwork.user[68] averageWaitTime 0.1024376477469
scalar DatabaseNetwork.user[68] accessesPerSecond 0.0493
par DatabaseNetwork.user[69] typename "\"progetto.User\""
par DatabaseNetwork.user[69] userId 69
par DatabaseNetwork.user[69] lambda 0.05
par DatabaseNetwork.user[69] readProbability 0.3
par DatabaseNetwork.user[69] numTables 20
par DatabaseNetwork.user[69] tableDistribution "\"uniform\""
par DatabaseNetwork.user[69] serviceTime 0.1s
attr unit s
par DatabaseNetwork.user[69] lognormalM 0.5
par DatabaseNetwork.user[69] lognormalS 1
scalar DatabaseNetwork.user[69] totalAccesses 514
scalar DatabaseNetwork.user[69] totalReads 134
scalar DatabaseNetwork.user[69] totalWrites 380
scalar DatabaseNetwork.user[69] averageWaitTime 0.10181669721789
scalar DatabaseNetwork.user[69] accessesPerSecond 0.0514
par DatabaseNetwork.user[70] typename "\"progetto.User\""
par DatabaseNetwork.user[70] userId 70
par DatabaseNetwork.user[70] lambda 0.05
par DatabaseNetwork.user[70] readProbability 0.3
par DatabaseNetwork.user[70] numTables 20
par DatabaseNetwork.user[70] tableDistribution "\"uniform\""
par DatabaseNetwork.user[70] serviceTime 0.1s
attr unit s
par DatabaseNetwork.user[70] lognormalM 0.5
par DatabaseNetwork.user[70] lognormalS 1
scalar DatabaseNetwork.user[70] totalAccesses 480
scalar DatabaseNetwork.user[70] totalReads 159
scalar DatabaseNetwork.user[70] totalWrites 321
scalar DatabaseNetwork.user[70] averageWaitTime 0.10188587138671
scalar DatabaseNetwork.user[70] accessesPerSecond 0.048
par DatabaseNetwork.user[71] typename "\"progetto.User\""
par DatabaseNetwork.user[71] userId 71
par DatabaseNetwork.user[71] lambda 0.05
par DatabaseNetwork.user[71] readProbability 0.3
par DatabaseNetwork.user[71] numTables 20
par DatabaseNetwork.user[71] tableDistribution "\"uniform\""
par DatabaseNetwork.user[71] serviceTime 0.1s
attr unit s
par DatabaseNetwork.user[71] lognormalM 0.5
par DatabaseNetwork.user[71] lognormalS 1
scalar DatabaseNetwork.user[71] totalAccesses 515
scalar DatabaseNetwork.user[71] totalReads 172
scalar DatabaseNetwork.user[71] totalWrites 343
scalar DatabaseNetwork.user[71] averageWaitTime 0.10203638222011
scalar DatabaseNetwork.user[71] accessesPerSecond 0.0515
par DatabaseNetwork.user[72] typename "\"progetto.User\""
par DatabaseNetwork.user[72] userId 72
par DatabaseNetwork.user[72] lambda 0.05
par DatabaseNetwork.user[72] readProbability 0.3
par DatabaseNetwork.user[72] numTables 20
par DatabaseNetwork.user[72] tableDistribution "\"uniform\""
par DatabaseNetwork.user[72] serviceTime 0.1s
attr unit s
par DatabaseNetwork.user[72] lognormalM 0.5
par DatabaseNetwork.user[72] lognormalS 1
scalar DatabaseNetwork.user[72] totalAccesses 496
scalar DatabaseNetwork.user[72] totalReads 138
scalar DatabaseNetwork.user[72] totalWrites 358
scalar DatabaseNetwork.user[72] averageWaitTime 0.10354075786448
scalar DatabaseNetwork.user[72] accessesPerSecond 0.0496
par DatabaseNetwork.user[73] typename "\"progetto.User\""
par DatabaseNetwork.user[73] userId 73
par DatabaseNetwork.user[73] lambda 0.05
par DatabaseNetwork.user[73] readProbability 0.3
par DatabaseNetwork.user[73] numTables 20
par DatabaseNetwork.user[73] tableDistribution "\"uniform\""
par DatabaseNetwork.user[73] serviceTime 0.1s
attr unit s
par DatabaseNetwork.user[73] lognormalM 0.5
par DatabaseNetwork.user[73] lognormalS 1
scalar DatabaseNetwork.user[73] totalAccesses 524
scalar DatabaseNetwork.user[73] totalReads 151
scalar DatabaseNetwork.user[73] totalWrites 373
scalar DatabaseNetwork.user[73] averageWaitTime 0.10203255460897
scalar DatabaseNetwork.user[73] accessesPerSecond 0.0524
par DatabaseNetwork.user[74] typename "\"progetto.User\""
par DatabaseNetwork.user[74] userId 74
par DatabaseNetwork.user[74] lambda 0.05
par DatabaseNetwork.user[74] readProbability 0.3
par DatabaseNetwork.user[74] numTables 20
par DatabaseNetwork.user[74] tableDistribution "\"uniform\""
par DatabaseNetwork.user[74] serviceTime 0.1s
attr unit s
par DatabaseNetwork.user[74] lognormalM 0.5
par DatabaseNetwork.user[74] lognormalS 1
scalar DatabaseNetwork.user[74] totalAccesses 512
scalar DatabaseNetwork.user[74] totalReads 158
scalar DatabaseNetwork.user[74] totalWrites 354
scalar DatabaseNetwork.user[74] averageWaitTime 0.10336856306073
scalar DatabaseNetwork.user[74] accessesPerSecond 0.0512
par DatabaseNetwork.user[75] typename "\"progetto.User\""
par DatabaseNetwork.user[75] userId 75
par DatabaseNetwork.user[75] lambda 0.05
par DatabaseNetwork.user[75] readProbability 0.3
par DatabaseNetwork.user[75] numTables 20
par DatabaseNetwork.user[75] tableDistribution "\"uniform\""
par DatabaseNetwork.user[75] serviceTime 0.1s
attr unit s
par DatabaseNetwork.user[75] lognormalM 0.5
par DatabaseNetwork.user[75] lognormalS 1
scalar DatabaseNetwork.user[75] totalAccesses 501
scalar DatabaseNetwork.user[75] totalReads 147
scalar DatabaseNetwork.user[75] totalWrites 354
scalar DatabaseNetwork.user[75] averageWaitTime 0.10121093409088
scalar DatabaseNetwork.user[75] accessesPerSecond 0.0501
par DatabaseNetwork.user[76] typename "\"progetto.User\""
par DatabaseNetwork.user[76] userId 76
par DatabaseNetwork.user[76] lambda 0.05
par DatabaseNetwork.user[76] readProbability 0.3
par DatabaseNetwork.user[76] numTables 20
par DatabaseNetwork.user[76] tableDistribution "\"uniform\""
par DatabaseNetwork.user[76] serviceTime 0.1s
attr unit s
par DatabaseNetwork.user[76] lognormalM 0.5
par DatabaseNetwork.user[76] lognormalS 1
scalar DatabaseNetwork.user[76] totalAccesses 517
scalar DatabaseNetwork.user[76] totalReads 152
scalar DatabaseNetwork.user[76] totalWrites 365
scalar DatabaseNetwork.user[76] averageWaitTime 0.10257152105215
scalar DatabaseNetwork.user[76] accessesPerSecond 0.0517
par DatabaseNetwork.user[77] typename "\"progetto.User\""
par DatabaseNetwork.user[77] userId 77
par DatabaseNetwork.user[77] lambda 0.05
par DatabaseNetwork.user[77] readProbability 0.3
par DatabaseNetwork.user[77] numTables 20
par DatabaseNetwork.user[77] tableDistribution "\"uniform\""
par DatabaseNetwork.user[77] serviceTime 0.1s
attr unit s
par DatabaseNetwork.user[77] lognormalM 0.5
par DatabaseNetwork.user[77] lognormalS 1
scalar DatabaseNetwork.user[77] totalAccesses 509
scalar DatabaseNetwork.user[77] totalReads 155
scalar DatabaseNetwork.user[77] totalWrites 354
scalar DatabaseNetwork.user[77] averageWaitTime 0.10303983481791
scalar DatabaseNetwork.user[77] accessesPerSecond 0.0509
par DatabaseNetwork.user[78] typename "\"progetto.User\""
par DatabaseNetwork.user[78] userId 78
par DatabaseNetwork.user[78] lambda 0.05
par DatabaseNetwork.user[78] readProbability 0.3
par DatabaseNetwork.user[78] numTables 20
par DatabaseNetwork.user[78] tableDistribution "\"uniform\""
par DatabaseNetwork.user[78] serviceTime 0.1s
attr unit s
par DatabaseNetwork.user[78] lognormalM 0.5
par DatabaseNetwork.user[78] lognormalS 1
scalar DatabaseNetwork.user[78] totalAccesses 531
scalar DatabaseNetwork.user[78] totalReads 151
scalar DatabaseNetwork.user[78] totalWrites 380
scalar DatabaseNetwork.user[78] averageWaitTime 0.10173357934217
scalar DatabaseNetwork.user[78] accessesPerSecond 0.0531
par DatabaseNetwork.user[79] typename "\"progetto.User\""
par DatabaseNetwork.user[79] userId 79
par DatabaseNetwork.user[79] lambda 0.05
par DatabaseNetwork.user[79] readProbability 0.3
par DatabaseNetwork.user[79] numTables 20
par DatabaseNetwork.user[79] tableDistribution "\"uniform\""
par DatabaseNetwork.user[79] serviceTime 0.1s
attr unit s
par DatabaseNetwork.user[79] lognormalM 0.5
par DatabaseNetwork.user[79] lognormalS 1
scalar DatabaseNetwork.user[79] totalAccesses 506
scalar DatabaseNetwork.user[79] totalReads 140
scalar DatabaseNetwork.user[79] totalWrites 366
scalar DatabaseNetwork.user[79] averageWaitTime 0.10174829615225
scalar DatabaseNetwork.user[79] accessesPerSecond 0.0506
par DatabaseNetwork.user[80] typename "\"progetto.User\""
par DatabaseNetwork.user[80] userId 80
par DatabaseNetwork.user[80] lambda 0.05
par DatabaseNetwork.user[80] readProbability 0.3
par DatabaseNetwork.user[80] numTables 20
par DatabaseNetwork.user[80] tableDistribution "\"uniform\""
par DatabaseNetwork.user[80] serviceTime 0.1s
attr unit s
par DatabaseNetwork.user[80] lognormalM 0.5
par DatabaseNetwork.user[80] lognormalS 1
scalar DatabaseNetwork.user[80] totalAccesses 497
scalar DatabaseNetwork.user[80] totalReads 151
scalar DatabaseNetwork.user[80] totalWrites 346
scalar DatabaseNetwork.user[80] averageWaitTime 0.10166699318169
scalar DatabaseNetwork.user[80] accessesPerSecond 0.0497
par DatabaseNetwork.user[81] typename "\"progetto.User\""
par DatabaseNetwork.user[81] userId 81
par DatabaseNetwork.user[81] lambda 0.05
par DatabaseNetwork.user[81] readProbability 0.3
par DatabaseNetwork.user[81] numTables 20
par DatabaseNetwork.user[81] tableDistribution "\"uniform\""
par DatabaseNetwork.user[81] serviceTime 0.1s
attr unit s
par DatabaseNetwork.user[81] lognormalM 0.5
par DatabaseNetwork.user[81] lognormalS 1
scalar DatabaseNetwork.user[81] totalAccesses 507
scalar DatabaseNetwork.user[81] totalReads 162
scalar DatabaseNetwork.user[81] totalWrites 345
scalar DatabaseNetwork.user[81] averageWaitTime 0.10224375136247
scalar DatabaseNetwork.user[81] accessesPerSecond 0.0507
par DatabaseNetwork.user[82] typename "\"progetto.User\""
par DatabaseNetwork.user[82] userId 82
par DatabaseNetwork.user[82] lambda 0.05
par DatabaseNetwork.user[82] readProbability 0.3
par DatabaseNetwork.user[82] numTables 20
par DatabaseNetwork.user[82] tableDistribution "\"uniform\""
par DatabaseNetwork.user[82] serviceTime 0.1s
attr unit s
par DatabaseNetwork.user[82] lognormalM 0.5
par DatabaseNetwork.user[82] lognormalS 1
scalar DatabaseNetwork.user[82] totalAccesses 523
scalar DatabaseNetwork.user[82] totalReads 152
scalar DatabaseNetwork.user[82] totalWrites 371
scalar DatabaseNetwork.user[82] averageWaitTime 0.10113023153048
scalar DatabaseNetwork.user[82] accessesPerSecond 0.0523
par DatabaseNetwork.user[83] typename "\"progetto.User\""
par DatabaseNetwork.user[83] userId 83
par DatabaseNetwork.user[83] lambda 0.05
par DatabaseNetwork.user[83] readProbability 0.3
par DatabaseNetwork.user[83] numTables 20
par DatabaseNetwork.user[83] tableDistribution "\"uniform\""
par DatabaseNetwork.user[83] serviceTime 0.1s
attr unit s
par DatabaseNetwork.user[83] lognormalM 0.5
par DatabaseNetwork.user[83] lognormalS 1
scalar DatabaseNetwork.user[83] totalAccesses 513
scalar DatabaseNetwork.user[83] totalReads 146
scalar DatabaseNetwork.user[83] totalWrites 367
scalar DatabaseNetwork.user[83] averageWaitTime 0.10240354187517
scalar DatabaseNetwork.user[83] accessesPerSecond 0.0513
par DatabaseNetwork.user[84] typename "\"progetto.User\""
par DatabaseNetwork.user[84] userId 84
par DatabaseNetwork.user[84] lambda 0.05
par DatabaseNetwork.user[84] readProbability 0.3
par DatabaseNetwork.user[84] numTables 20
par DatabaseNetwork.user[84] tableDistribution "\"uniform\""
par DatabaseNetwork.user[84] serviceTime 0.1s
attr unit s
par DatabaseNetwork.user[84] lognormalM 0.5
par DatabaseNetwork.user[84] lognormalS 1
scalar DatabaseNetwork.user[84] totalAccesses 503
scalar DatabaseNetwork.user[84] totalReads 164
scalar DatabaseNetwork.user[84] totalWrites 339
scalar DatabaseNetwork.user[84] averageWaitTime 0.1029958319206
scalar DatabaseNetwork.user[84] accessesPerSecond 0.0503
par DatabaseNetwork.user[85] typename "\"progetto.User\""
par DatabaseNetwork.user[85] userId 85
par DatabaseNetwork.user[85] lambda 0.05
par DatabaseNetwork.user[85] readProbability 0.3
par DatabaseNetwork.user[85] numTables 20
par DatabaseNetwork.user[85] tableDistribution "\"uniform\""
par DatabaseNetwork.user[85] serviceTime 0.1s
attr unit s
par DatabaseNetwork.user[85] lognormalM 0.5
par DatabaseNetwork.user[85] lognormalS 1
scalar DatabaseNetwork.user[85] totalAccesses 497
scalar DatabaseNetwork.user[85] totalReads 141
scalar DatabaseNetwork.user[85] totalWrites 356
scalar DatabaseNetwork.user[85] averageWaitTime 0.10277585029278
scalar DatabaseNetwork.user[85] accessesPerSecond 0.0497
par DatabaseNetwork.user[86] typename "\"progetto.User\""
par DatabaseNetwork.user[86] userId 86
par DatabaseNetwork.user[86] lambda 0.05
par DatabaseNetwork.user[86] readProbability 0.3
par DatabaseNetwork.user[86] numTables 20
par DatabaseNetwork.user[86] tableDistribution "\"uniform\""
par DatabaseNetwork.user[86] serviceTime 0.1s
attr unit s
par DatabaseNetwork.user[86] lognormalM 0.5
par DatabaseNetwork.user[86] lognormalS 1
scalar DatabaseNetwork.user[86] totalAccesses 506
scalar DatabaseNetwork.user[86] totalReads 153
scalar DatabaseNetwork.user[86] totalWrites 353
scalar DatabaseNetwork.user[86] averageWaitTime 0.10252372019403
scalar DatabaseNetwork.user[86] accessesPerSecond 0.0506
par DatabaseNetwork.user[87] typename "\"progetto.User\""
par DatabaseNetwork.user[87] userId 87
par DatabaseNetwork.user[87] lambda 0.05
par DatabaseNetwork.user[87] readProbability 0.3
par DatabaseNetwork.user[87] numTables 20
par DatabaseNetwork.user[87] tableDistribution "\"uniform\""
par DatabaseNetwork.user[87] serviceTime 0.1s
attr unit s
par DatabaseNetwork.user[87] lognormalM 0.5
par DatabaseNetwork.user[87] lognormalS 1
scalar DatabaseNetwork.user[87] totalAccesses 501
scalar DatabaseNetwork.user[87] totalReads 166
scalar DatabaseNetwork.user[87] totalWrites 335
scalar DatabaseNetwork.user[87] averageWaitTime 0.10210305765235
scalar DatabaseNetwork.user[87] accessesPerSecond 0.0501
par DatabaseNetwork.user[88] typename "\"progetto.User\""
par DatabaseNetwork.user[88] userId 88
par DatabaseNetwork.user[88] lambda 0.05
par DatabaseNetwork.user[88] readProbability 0.3
par DatabaseNetwork.user[88] numTables 20
par DatabaseNetwork.user[88] tableDistribution "\"uniform\""
par DatabaseNetwork.user[88] serviceTime 0.1s
attr unit s
par DatabaseNetwork.user[88] lognormalM 0.5
par DatabaseNetwork.user[88] lognormalS 1
scalar DatabaseNetwork.user[88] totalAccesses 519
scalar DatabaseNetwork.user[88] totalReads 164
scalar DatabaseNetwork.user[88] totalWrites 355
scalar DatabaseNetwork.user[88] averageWaitTime 0.10205516930778
scalar DatabaseNetwork.user[88] accessesPerSecond 0.0519
par DatabaseNetwork.user[89] typename "\"progetto.User\""
par DatabaseNetwork.user[89] userId 89
par DatabaseNetwork.user[89] lambda 0.05
par DatabaseNetwork.user[89] readProbability 0.3
par DatabaseNetwork.user[89] numTables 20
par DatabaseNetwork.user[89] tableDistribution "\"uniform\""
par DatabaseNetwork.user[89] serviceTime 0.1s
attr unit s
par DatabaseNetwork.user[89] lognormalM 0.5
par DatabaseNetwork.user[89] lognormalS 1
scalar DatabaseNetwork.user[89] totalAccesses 483
scalar DatabaseNetwork.user[89] totalReads 147
scalar DatabaseNetwork.user[89] totalWrites 336
scalar DatabaseNetwork.user[89] averageWaitTime 0.10301842784057
scalar DatabaseNetwork.user[89] accessesPerSecond 0.0483
par DatabaseNetwork.user[90] typename "\"progetto.User\""
par DatabaseNetwork.user[90] userId 90
par DatabaseNetwork.user[90] lambda 0.05
par DatabaseNetwork.user[90] readProbability 0.3
par DatabaseNetwork.user[90] numTables 20
par DatabaseNetwork.user[90] tableDistribution "\"uniform\""
par DatabaseNetwork.user[90] serviceTime 0.1s
attr unit s
par DatabaseNetwork.user[90] lognormalM 0.5
par DatabaseNetwork.user[90] lognormalS 1
scalar DatabaseNetwork.user[90] totalAccesses 514
scalar DatabaseNetwork.user[90] totalReads 157
scalar DatabaseNetwork.user[90] totalWrites 357
scalar DatabaseNetwork.user[90] averageWaitTime 0.1022373629319
scalar DatabaseNetwork.user[90] accessesPerSecond 0.0514
par DatabaseNetwork.user[91] typename "\"progetto.User\""
par DatabaseNetwork.user[91] userId 91
par DatabaseNetwork.user[91] lambda 0.05
par DatabaseNetwork.user[91] readProbability 0.3
par DatabaseNetwork.user[91] numTables 20
par DatabaseNetwork.user[91] tableDistribution "\"uniform\""
par DatabaseNetwork.user[91] serviceTime 0.1s
attr unit s
par DatabaseNetwork.user[91] lognormalM 0.5
par DatabaseNetwork.user[91] lognormalS 1
scalar DatabaseNetwork.user[91] totalAccesses 500
scalar DatabaseNetwork.user[91] totalReads 135
scalar DatabaseNetwork.user[91] totalWrites 365
scalar DatabaseNetwork.user[91] averageWaitTime 0.10392648078176
scalar DatabaseNetwork.user[91] accessesPerSecond 0.05
par DatabaseNetwork.user[92] typename "\"progetto.User\""
par DatabaseNetwork.user[92] userId 92
par DatabaseNetwork.user[92] lambda 0.05
par DatabaseNetwork.user[92] readProbability 0.3
par DatabaseNetwork.user[92] numTables 20
par DatabaseNetwork.user[92] tableDistribution "\"uniform\""
par DatabaseNetwork.user[92] serviceTime 0.1s
attr unit s
par DatabaseNetwork.user[92] lognormalM 0.5
par DatabaseNetwork.user[92] lognormalS 1
scalar DatabaseNetwork.user[92] totalAccesses 496
scalar DatabaseNetwork.user[92] totalReads 148
scalar DatabaseNetwork.user[92] totalWrites 348
scalar DatabaseNetwork.user[92] averageWaitTime 0.10213167594227
scalar DatabaseNetwork.user[92] accessesPerSecond 0.0496
par DatabaseNetwork.user[93] typename "\"progetto.User\""
par DatabaseNetwork.user[93] userId 93
par DatabaseNetwork.user[93] lambda 0.05
par DatabaseNetwork.user[93] readProbability 0.3
par DatabaseNetwork.user[93] numTables 20
par DatabaseNetwork.user[93] tableDistribution "\"uniform\""
par DatabaseNetwork.user[93] serviceTime 0.1s
attr unit s
par DatabaseNetwork.user[93] lognormalM 0.5
par DatabaseNetwork.user[93] lognormalS 1
scalar DatabaseNetwork.user[93] totalAccesses 484
scalar DatabaseNetwork.user[93] totalReads 119
scalar DatabaseNetwork.user[93] totalWrites 365
scalar DatabaseNetwork.user[93] averageWaitTime 0.10173691768448
scalar DatabaseNetwork.user[93] accessesPerSecond 0.0484
par DatabaseNetwork.user[94] typename "\"progetto.User\""
par DatabaseNetwork.user[94] userId 94
par DatabaseNetwork.user[94] lambda 0.05
par DatabaseNetwork.user[94] readProbability 0.3
par DatabaseNetwork.user[94] numTables 20
par DatabaseNetwork.user[94] tableDistribution "\"uniform\""
par DatabaseNetwork.user[94] serviceTime 0.1s
attr unit s
par DatabaseNetwork.user[94] lognormalM 0.5
par DatabaseNetwork.user[94] lognormalS 1
scalar DatabaseNetwork.user[94] totalAccesses 510
scalar DatabaseNetwork.user[94] totalReads 164
scalar DatabaseNetwork.user[94] totalWrites 346
scalar DatabaseNetwork.user[94] averageWaitTime 0.10176125270645
scalar DatabaseNetwork.user[94] accessesPerSecond 0.051
par DatabaseNetwork.user[95] typename "\"progetto.User\""
par DatabaseNetwork.user[95] userId 95
par DatabaseNetwork.user[95] lambda 0.05
par DatabaseNetwork.user[95] readProbability 0.3
par DatabaseNetwork.user[95] numTables 20
par DatabaseNetwork.user[95] tableDistribution "\"uniform\""
par DatabaseNetwork.user[95] serviceTime 0.1s
attr unit s
par DatabaseNetwork.user[95] lognormalM 0.5
par DatabaseNetwork.user[95] lognormalS 1
scalar DatabaseNetwork.user[95] totalAccesses 498
scalar DatabaseNetwork.user[95] totalReads 146
scalar DatabaseNetwork.user[95] totalWrites 352
scalar DatabaseNetwork.user[95] averageWaitTime 0.10248966208498
scalar DatabaseNetwork.user[95] accessesPerSecond 0.0498
par DatabaseNetwork.user[96] typename "\"progetto.User\""
par DatabaseNetwork.user[96] userId 96
par DatabaseNetwork.user[96] lambda 0.05
par DatabaseNetwork.user[96] readProbability 0.3
par DatabaseNetwork.user[96] numTables 20
par DatabaseNetwork.user[96] tableDistribution "\"uniform\""
par DatabaseNetwork.user[96] serviceTime 0.1s
attr unit s
par DatabaseNetwork.user[96] lognormalM 0.5
par DatabaseNetwork.user[96] lognormalS 1
scalar DatabaseNetwork.user[96] totalAccesses 500
scalar DatabaseNetwork.user[96] totalReads 153
scalar DatabaseNetwork.user[96] totalWrites 347
scalar DatabaseNetwork.user[96] averageWaitTime 0.10202267228119
scalar DatabaseNetwork.user[96] accessesPerSecond 0.05
par DatabaseNetwork.user[97] typename "\"progetto.User\""
par DatabaseNetwork.user[97] userId 97
par DatabaseNetwork.user[97] lambda 0.05
par DatabaseNetwork.user[97] readProbability 0.3
par DatabaseNetwork.user[97] numTables 20
par DatabaseNetwork.user[97] tableDistribution "\"uniform\""
par DatabaseNetwork.user[97] serviceTime 0.1s
attr unit s
par DatabaseNetwork.user[97] lognormalM 0.5
par DatabaseNetwork.user[97] lognormalS 1
scalar DatabaseNetwork.user[97] totalAccesses 469
scalar DatabaseNetwork.user[97] totalReads 141
scalar DatabaseNetwork.user[97] totalWrites 328
scalar DatabaseNetwork.user[97] averageWaitTime 0.10243775485827
scalar DatabaseNetwork.user[97] accessesPerSecond 0.0469
par DatabaseNetwork.user[98] typename "\"progetto.User\""
par DatabaseNetwork.user[98] userId 98
par DatabaseNetwork.user[98] lambda 0.05
par DatabaseNetwork.user[98] readProbability 0.3
par DatabaseNetwork.user[98] numTables 20
par DatabaseNetwork.user[98] tableDistribution "\"uniform\""
par DatabaseNetwork.user[98] serviceTime 0.1s
attr unit s
par DatabaseNetwork.user[98] lognormalM 0.5
par DatabaseNetwork.user[98] lognormalS 1
scalar DatabaseNetwork.user[98] totalAccesses 451
scalar DatabaseNetwork.user[98] totalReads 132
scalar DatabaseNetwork.user[98] totalWrites 319
scalar DatabaseNetwork.user[98] averageWaitTime 0.1034302545913
scalar DatabaseNetwork.user[98] accessesPerSecond 0.0451
par DatabaseNetwork.user[99] typename "\"progetto.User\""
par DatabaseNetwork.user[99] userId 99
par DatabaseNetwork.user[99] lambda 0.05
par DatabaseNetwork.user[99] readProbability 0.3
par DatabaseNetwork.user[99] numTables 20
par DatabaseNetwork.user[99] tableDistribution "\"uniform\""
par DatabaseNetwork.user[99] serviceTime 0.1s
attr unit s
par DatabaseNetwork.user[99] lognormalM 0.5
par DatabaseNetwork.user[99] lognormalS 1
scalar DatabaseNetwork.user[99] totalAccesses 507
scalar DatabaseNetwork.user[99] totalReads 151
scalar DatabaseNetwork.user[99] totalWrites 356
scalar DatabaseNetwork.user[99] averageWaitTime 0.10390390671827
scalar DatabaseNetwork.user[99] accessesPerSecond 0.0507
par DatabaseNetwork.user[100] typename "\"progetto.User\""
par DatabaseNetwork.user[100] userId 100
par DatabaseNetwork.user[100] lambda 0.05
par DatabaseNetwork.user[100] readProbability 0.3
par DatabaseNetwork.user[100] numTables 20
par DatabaseNetwork.user[100] tableDistribution "\"uniform\""
par DatabaseNetwork.user[100] serviceTime 0.1s
attr unit s
par DatabaseNetwork.user[100] lognormalM 0.5
par DatabaseNetwork.user[100] lognormalS 1
scalar DatabaseNetwork.user[100] totalAccesses 510
scalar DatabaseNetwork.user[100] totalReads 148
scalar DatabaseNetwork.user[100] totalWrites 362
scalar DatabaseNetwork.user[100] averageWaitTime 0.10243471643575
scalar DatabaseNetwork.user[100] accessesPerSecond 0.051
par DatabaseNetwork.user[101] typename "\"progetto.User\""
par DatabaseNetwork.user[101] userId 101
par DatabaseNetwork.user[101] lambda 0.05
par DatabaseNetwork.user[101] readProbability 0.3
par DatabaseNetwork.user[101] numTables 20
par DatabaseNetwork.user[101] tableDistribution "\"uniform\""
par DatabaseNetwork.user[101] serviceTime 0.1s
attr unit s
par DatabaseNetwork.user[101] lognormalM 0.5
par DatabaseNetwork.user[101] lognormalS 1
scalar DatabaseNetwork.user[101] totalAccesses 451
scalar DatabaseNetwork.user[101] totalReads 135
scalar DatabaseNetwork.user[101] totalWrites 316
scalar DatabaseNetwork.user[101] averageWaitTime 0.10188040029842
scalar DatabaseNetwork.user[101] accessesPerSecond 0.0451
par DatabaseNetwork.user[102] typename "\"progetto.User\""
par DatabaseNetwork.user[102] userId 102
par DatabaseNetwork.user[102] lambda 0.05
par DatabaseNetwork.user[102] readProbability 0.3
par DatabaseNetwork.user[102] numTables 20
par DatabaseNetwork.user[102] tableDistribution "\"uniform\""
par DatabaseNetwork.user[102] serviceTime 0.1s
attr unit s
par DatabaseNetwork.user[102] lognormalM 0.5
par DatabaseNetwork.user[102] lognormalS 1
scalar DatabaseNetwork.user[102] totalAccesses 494
scalar DatabaseNetwork.user[102] totalReads 152
scalar DatabaseNetwork.user[102] totalWrites 342
scalar DatabaseNetwork.user[102] averageWaitTime 0.10236823266573
scalar DatabaseNetwork.user[102] accessesPerSecond 0.0494
par DatabaseNetwork.user[103] typename "\"progetto.User\""
par DatabaseNetwork.user[103] userId 103
par DatabaseNetwork.user[103] lambda 0.05
par DatabaseNetwork.user[103] readProbability 0.3
par DatabaseNetwork.user[103] numTables 20
par DatabaseNetwork.user[103] tableDistribution "\"uniform\""
par DatabaseNetwork.user[103] serviceTime 0.1s
attr unit s
par DatabaseNetwork.user[103] lognormalM 0.5
par DatabaseNetwork.user[103] lognormalS 1
scalar DatabaseNetwork.user[103] totalAccesses 482
scalar DatabaseNetwork.user[103] totalReads 155
scalar DatabaseNetwork.user[103] totalWrites 327
scalar DatabaseNetwork.user[103] averageWaitTime 0.10310148306781
scalar DatabaseNetwork.user[103] accessesPerSecond 0.0482
par DatabaseNetwork.user[104] typename "\"progetto.User\""
par DatabaseNetwork.user[104] userId 104
par DatabaseNetwork.user[104] lambda 0.05
par DatabaseNetwork.user[104] readProbability 0.3
par DatabaseNetwork.user[104] numTables 20
par DatabaseNetwork.user[104] tableDistribution "\"uniform\""
par DatabaseNetwork.user[104] serviceTime 0.1s
attr unit s
par DatabaseNetwork.user[104] lognormalM 0.5
par DatabaseNetwork.user[104] lognormalS 1
scalar DatabaseNetwork.user[104] totalAccesses 508
scalar DatabaseNetwork.user[104] totalReads 146
scalar DatabaseNetwork.user[104] totalWrites 362
scalar DatabaseNetwork.user[104] averageWaitTime 0.10230917299435
scalar DatabaseNetwork.user[104] accessesPerSecond 0.0508
par DatabaseNetwork.user[105] typename "\"progetto.User\""
par DatabaseNetwork.user[105] userId 105
par DatabaseNetwork.user[105] lambda 0.05
par DatabaseNetwork.user[105] readProbability 0.3
par DatabaseNetwork.user[105] numTables 20
par DatabaseNetwork.user[105] tableDistribution "\"uniform\""
par DatabaseNetwork.user[105] serviceTime 0.1s
attr unit s
par DatabaseNetwork.user[105] lognormalM 0.5
par DatabaseNetwork.user[105] lognormalS 1
scalar DatabaseNetwork.user[105] totalAccesses 511
scalar DatabaseNetwork.user[105] totalReads 160
scalar DatabaseNetwork.user[105] totalWrites 351
scalar DatabaseNetwork.user[105] averageWaitTime 0.10277001710992
scalar DatabaseNetwork.user[105] accessesPerSecond 0.0511
par DatabaseNetwork.user[106] typename "\"progetto.User\""
par DatabaseNetwork.user[106] userId 106
par DatabaseNetwork.user[106] lambda 0.05
par DatabaseNetwork.user[106] readProbability 0.3
par DatabaseNetwork.user[106] numTables 20
par DatabaseNetwork.user[106] tableDistribution "\"uniform\""
par DatabaseNetwork.user[106] serviceTime 0.1s
attr unit s
par DatabaseNetwork.user[106] lognormalM 0.5
par DatabaseNetwork.user[106] lognormalS 1
scalar DatabaseNetwork.user[106] totalAccesses 502
scalar DatabaseNetwork.user[106] totalReads 149
scalar DatabaseNetwork.user[106] totalWrites 353
scalar DatabaseNetwork.user[106] averageWaitTime 0.10229566554607
scalar DatabaseNetwork.user[106] accessesPerSecond 0.0502
par DatabaseNetwork.user[107] typename "\"progetto.User\""
par DatabaseNetwork.user[107] userId 107
par DatabaseNetwork.user[107] lambda 0.05
par DatabaseNetwork.user[107] readProbability 0.3
par DatabaseNetwork.user[107] numTables 20
par DatabaseNetwork.user[107] tableDistribution "\"uniform\""
par DatabaseNetwork.user[107] serviceTime 0.1s
attr unit s
par DatabaseNetwork.user[107] lognormalM 0.5
par DatabaseNetwork.user[107] lognormalS 1
scalar DatabaseNetwork.user[107] totalAccesses 462
scalar DatabaseNetwork.user[107] totalReads 157
scalar DatabaseNetwork.user[107] totalWrites 305
scalar DatabaseNetwork.user[107] averageWaitTime 0.10182894352027
scalar DatabaseNetwork.user[107] accessesPerSecond 0.0462
par DatabaseNetwork.user[108] typename "\"progetto.User\""
par DatabaseNetwork.user[108] userId 108
par DatabaseNetwork.user[108] lambda 0.05
par DatabaseNetwork.user[108] readProbability 0.3
par DatabaseNetwork.user[108] numTables 20
par DatabaseNetwork.user[108] tableDistribution "\"uniform\""
par DatabaseNetwork.user[108] serviceTime 0.1s
attr unit s
par DatabaseNetwork.user[108] lognormalM 0.5
par DatabaseNetwork.user[108] lognormalS 1
scalar DatabaseNetwork.user[108] totalAccesses 473
scalar DatabaseNetwork.user[108] totalReads 148
scalar DatabaseNetwork.user[108] totalWrites 325
scalar DatabaseNetwork.user[108] averageWaitTime 0.10138935049123
scalar DatabaseNetwork.user[108] accessesPerSecond 0.0473
par DatabaseNetwork.user[109] typename "\"progetto.User\""
par DatabaseNetwork.user[109] userId 109
par DatabaseNetwork.user[109] lambda 0.05
par DatabaseNetwork.user[109] readProbability 0.3
par DatabaseNetwork.user[109] numTables 20
par DatabaseNetwork.user[109] tableDistribution "\"uniform\""
par DatabaseNetwork.user[109] serviceTime 0.1s
attr unit s
par DatabaseNetwork.user[109] lognormalM 0.5
par DatabaseNetwork.user[109] lognormalS 1
scalar DatabaseNetwork.user[109] totalAccesses 487
scalar DatabaseNetwork.user[109] totalReads 148
scalar DatabaseNetwork.user[109] totalWrites 339
scalar DatabaseNetwork.user[109] averageWaitTime 0.10282497091022
scalar DatabaseNetwork.user[109] accessesPerSecond 0.0487
par DatabaseNetwork.user[110] typename "\"progetto.User\""
par DatabaseNetwork.user[110] userId 110
par DatabaseNetwork.user[110] lambda 0.05
par DatabaseNetwork.user[110] readProbability 0.3
par DatabaseNetwork.user[110] numTables 20
par DatabaseNetwork.user[110] tableDistribution "\"uniform\""
par DatabaseNetwork.user[110] serviceTime 0.1s
attr unit s
par DatabaseNetwork.user[110] lognormalM 0.5
par DatabaseNetwork.user[110] lognormalS 1
scalar DatabaseNetwork.user[110] totalAccesses 472
scalar DatabaseNetwork.user[110] totalReads 146
scalar DatabaseNetwork.user[110] totalWrites 326
scalar DatabaseNetwork.user[110] averageWaitTime 0.10178392132293
scalar DatabaseNetwork.user[110] accessesPerSecond 0.0472
par DatabaseNetwork.user[111] typename "\"progetto.User\""
par DatabaseNetwork.user[111] userId 111
par DatabaseNetwork.user[111] lambda 0.05
par DatabaseNetwork.user[111] readProbability 0.3
par DatabaseNetwork.user[111] numTables 20
par DatabaseNetwork.user[111] tableDistribution "\"uniform\""
par DatabaseNetwork.user[111] serviceTime 0.1s
attr unit s
par DatabaseNetwork.user[111] lognormalM 0.5
par DatabaseNetwork.user[111] lognormalS 1
scalar DatabaseNetwork.user[111] totalAccesses 490
scalar DatabaseNetwork.user[111] totalReads 142
scalar DatabaseNetwork.user[111] totalWrites 348
scalar DatabaseNetwork.user[111] averageWaitTime 0.10245860539286
scalar DatabaseNetwork.user[111] accessesPerSecond 0.049
par DatabaseNetwork.user[112] typename "\"progetto.User\""
par DatabaseNetwork.user[112] userId 112
par DatabaseNetwork.user[112] lambda 0.05
par DatabaseNetwork.user[112] readProbability 0.3
par DatabaseNetwork.user[112] numTables 20
par DatabaseNetwork.user[112] tableDistribution "\"uniform\""
par DatabaseNetwork.user[112] serviceTime 0.1s
attr unit s
[...]
scalar DatabaseNetwork.user[188] totalAccesses 446
scalar DatabaseNetwork.user[188] totalReads 161
scalar DatabaseNetwork.user[188] totalWrites 285
scalar DatabaseNetwork.user[188] averageWaitTime 0.10113474255015
scalar DatabaseNetwork.user[188] accessesPerSecond 0.0446
par DatabaseNetwork.user[189] typename "\"progetto.User\""
par DatabaseNetwork.user[189] userId 189
par DatabaseNetwork.user[189] lambda 0.05
par DatabaseNetwork.user[189] readProbability 0.3
par DatabaseNetwork.user[189] numTables 20
par DatabaseNetwork.user[189] tableDistribution "\"uniform\""
par DatabaseNetwork.user[189] serviceTime 0.1s
attr unit s
par DatabaseNetwork.user[189] lognormalM 0.5
par DatabaseNetwork.user[189] lognormalS 1
scalar DatabaseNetwork.user[189] totalAccesses 458
scalar DatabaseNetwork.user[189] totalReads 130
scalar DatabaseNetwork.user[189] totalWrites 328
scalar DatabaseNetwork.user[189] averageWaitTime 0.10229621772045
scalar DatabaseNetwork.user[189] accessesPerSecond 0.0458
par DatabaseNetwork.user[190] typename "\"progetto.User\""
par DatabaseNetwork.user[190] userId 190
par DatabaseNetwork.user[190] lambda 0.05
par DatabaseNetwork.user[190] readProbability 0.3
par DatabaseNetwork.user[190] numTables 20
par DatabaseNetwork.user[190] tableDistribution "\"uniform\""
par DatabaseNetwork.user[190] serviceTime 0.1s
attr unit s
par DatabaseNetwork.user[190] lognormalM 0.5
par DatabaseNetwork.user[190] lognormalS 1
scalar DatabaseNetwork.user[190] totalAccesses 515
scalar DatabaseNetwork.user[190] totalReads 158
scalar DatabaseNetwork.user[190] totalWrites 357
scalar DatabaseNetwork.user[190] averageWaitTime 0.10231449970002
scalar DatabaseNetwork.user[190] accessesPerSecond 0.0515
par DatabaseNetwork.user[191] typename "\"progetto.User\""
par DatabaseNetwork.user[191] userId 191
par DatabaseNetwork.user[191] lambda 0.05
par DatabaseNetwork.user[191] readProbability 0.3
par DatabaseNetwork.user[191] numTables 20
par DatabaseNetwork.user[191] tableDistribution "\"uniform\""
par DatabaseNetwork.user[191] serviceTime 0.1s
attr unit s
par DatabaseNetwork.user[191] lognormalM 0.5
par DatabaseNetwork.user[191] lognormalS 1
scalar DatabaseNetwork.user[191] totalAccesses 494
scalar DatabaseNetwork.user[191] totalReads 140
scalar DatabaseNetwork.user[191] totalWrites 354
scalar DatabaseNetwork.user[191] averageWaitTime 0.10157330100873
scalar DatabaseNetwork.user[191] accessesPerSecond 0.0494
par DatabaseNetwork.user[192] typename "\"progetto.User\""
par DatabaseNetwork.user[192] userId 192
par DatabaseNetwork.user[192] lambda 0.05
par DatabaseNetwork.user[192] readProbability 0.3
par DatabaseNetwork.user[192] numTables 20
par DatabaseNetwork.user[192] tableDistribution "\"uniform\""
par DatabaseNetwork.user[192] serviceTime 0.1s
attr unit s
par DatabaseNetwork.user[192] lognormalM 0.5
par DatabaseNetwork.user[192] lognormalS 1
scalar DatabaseNetwork.user[192] totalAccesses 501
scalar DatabaseNetwork.user[192] totalReads 152
scalar DatabaseNetwork.user[192] totalWrites 349
scalar DatabaseNetwork.user[192] averageWaitTime 0.10329800160644
scalar DatabaseNetwork.user[192] accessesPerSecond 0.0501
par DatabaseNetwork.user[193] typename "\"progetto.User\""
par DatabaseNetwork.user[193] userId 193
par DatabaseNetwork.user[193] lambda 0.05
par DatabaseNetwork.user[193] readProbability 0.3
par DatabaseNetwork.user[193] numTables 20
par DatabaseNetwork.user[193] tableDistribution "\"uniform\""
par DatabaseNetwork.user[193] serviceTime 0.1s
attr unit s
par DatabaseNetwork.user[193] lognormalM 0.5
par DatabaseNetwork.user[193] lognormalS 1
scalar DatabaseNetwork.user[193] totalAccesses 445
scalar DatabaseNetwork.user[193] totalReads 125
scalar DatabaseNetwork.user[193] totalWrites 320
scalar DatabaseNetwork.user[193] averageWaitTime 0.10184059384466
scalar DatabaseNetwork.user[193] accessesPerSecond 0.0445
par DatabaseNetwork.user[194] typename "\"progetto.User\""
par DatabaseNetwork.user[194] userId 194
par DatabaseNetwork.user[194] lambda 0.05
par DatabaseNetwork.user[194] readProbability 0.3
par DatabaseNetwork.user[194] numTables 20
par DatabaseNetwork.user[194] tableDistribution "\"uniform\""
par DatabaseNetwork.user[194] serviceTime 0.1s
attr unit s
par DatabaseNetwork.user[194] lognormalM 0.5
par DatabaseNetwork.user[194] lognormalS 1
scalar DatabaseNetwork.user[194] totalAccesses 536
scalar DatabaseNetwork.user[194] totalReads 165
scalar DatabaseNetwork.user[194] totalWrites 371
scalar DatabaseNetwork.user[194] averageWaitTime 0.10237194904818
scalar DatabaseNetwork.user[194] accessesPerSecond 0.0536
par DatabaseNetwork.user[195] typename "\"progetto.User\""
par DatabaseNetwork.user[195] userId 195
par DatabaseNetwork.user[195] lambda 0.05
par DatabaseNetwork.user[195] readProbability 0.3
par DatabaseNetwork.user[195] numTables 20
par DatabaseNetwork.user[195] tableDistribution "\"uniform\""
par DatabaseNetwork.user[195] serviceTime 0.1s
attr unit s
par DatabaseNetwork.user[195] lognormalM 0.5
par DatabaseNetwork.user[195] lognormalS 1
scalar DatabaseNetwork.user[195] totalAccesses 508
scalar DatabaseNetwork.user[195] totalReads 146
scalar DatabaseNetwork.user[195] totalWrites 362
scalar DatabaseNetwork.user[195] averageWaitTime 0.10305339579584
scalar DatabaseNetwork.user[195] accessesPerSecond 0.0508
par DatabaseNetwork.user[196] typename "\"progetto.User\""
par DatabaseNetwork.user[196] userId 196
par DatabaseNetwork.user[196] lambda 0.05
par DatabaseNetwork.user[196] readProbability 0.3
par DatabaseNetwork.user[196] numTables 20
par DatabaseNetwork.user[196] tableDistribution "\"uniform\""
par DatabaseNetwork.user[196] serviceTime 0.1s
attr unit s
par DatabaseNetwork.user[196] lognormalM 0.5
par DatabaseNetwork.user[196] lognormalS 1
scalar DatabaseNetwork.user[196] totalAccesses 519
scalar DatabaseNetwork.user[196] totalReads 172
scalar DatabaseNetwork.user[196] totalWrites 347
scalar DatabaseNetwork.user[196] averageWaitTime 0.10122828459477
scalar DatabaseNetwork.user[196] accessesPerSecond 0.0519
par DatabaseNetwork.user[197] typename "\"progetto.User\""
par DatabaseNetwork.user[197] userId 197
par DatabaseNetwork.user[197] lambda 0.05
par DatabaseNetwork.user[197] readProbability 0.3
par DatabaseNetwork.user[197] numTables 20
par DatabaseNetwork.user[197] tableDistribution "\"uniform\""
par DatabaseNetwork.user[197] serviceTime 0.1s
attr unit s
par DatabaseNetwork.user[197] lognormalM 0.5
par DatabaseNetwork.user[197] lognormalS 1
scalar DatabaseNetwork.user[197] totalAccesses 460
scalar DatabaseNetwork.user[197] totalReads 158
scalar DatabaseNetwork.user[197] totalWrites 302
scalar DatabaseNetwork.user[197] averageWaitTime 0.10263503015754
scalar DatabaseNetwork.user[197] accessesPerSecond 0.046
par DatabaseNetwork.user[198] typename "\"progetto.User\""
par DatabaseNetwork.user[198] userId 198
par DatabaseNetwork.user[198] lambda 0.05
par DatabaseNetwork.user[198] readProbability 0.3
par DatabaseNetwork.user[198] numTables 20
par DatabaseNetwork.user[198] tableDistribution "\"uniform\""
par DatabaseNetwork.user[198] serviceTime 0.1s
attr unit s
par DatabaseNetwork.user[198] lognormalM 0.5
par DatabaseNetwork.user[198] lognormalS 1
scalar DatabaseNetwork.user[198] totalAccesses 508
scalar DatabaseNetwork.user[198] totalReads 160
scalar DatabaseNetwork.user[198] totalWrites 348
scalar DatabaseNetwork.user[198] averageWaitTime 0.10284237980697
scalar DatabaseNetwork.user[198] accessesPerSecond 0.0508
par DatabaseNetwork.user[199] typename "\"progetto.User\""
par DatabaseNetwork.user[199] userId 199
par DatabaseNetwork.user[199] lambda 0.05
par DatabaseNetwork.user[199] readProbability 0.3
par DatabaseNetwork.user[199] numTables 20
par DatabaseNetwork.user[199] tableDistribution "\"uniform\""
par DatabaseNetwork.user[199] serviceTime 0.1s
attr unit s
par DatabaseNetwork.user[199] lognormalM 0.5
par DatabaseNetwork.user[199] lognormalS 1
scalar DatabaseNetwork.user[199] totalAccesses 511
scalar DatabaseNetwork.user[199] totalReads 147
scalar DatabaseNetwork.user[199] totalWrites 364
scalar DatabaseNetwork.user[199] averageWaitTime 0.10162326570943
scalar DatabaseNetwork.user[199] accessesPerSecond 0.0511
par DatabaseNetwork.table[0] typename "\"progetto.Table\""
par DatabaseNetwork.table[0] tableId 0
scalar DatabaseNetwork.table[0] table.totalServed 4870
scalar DatabaseNetwork.table[0] table.totalReads 1472
scalar DatabaseNetwork.table[0] table.totalWrites 3398
scalar DatabaseNetwork.table[0] table.throughput 0.487
scalar DatabaseNetwork.table[0] table.maxQueueLength 2
scalar DatabaseNetwork.table[0] table.avgQueueLength 1.0010266940452
scalar DatabaseNetwork.table[0] table.avgWaitingTime 0.0022846961511869
scalar DatabaseNetwork.table[0] table.utilization 0.99993827129717
par DatabaseNetwork.table[1] typename "\"progetto.Table\""
par DatabaseNetwork.table[1] tableId 1
scalar DatabaseNetwork.table[1] table.totalServed 4981
scalar DatabaseNetwork.table[1] table.totalReads 1522
scalar DatabaseNetwork.table[1] table.totalWrites 3459
scalar DatabaseNetwork.table[1] table.throughput 0.4981
scalar DatabaseNetwork.table[1] table.maxQueueLength 2
scalar DatabaseNetwork.table[1] table.avgQueueLength 1.0024091547882
scalar DatabaseNetwork.table[1] table.avgWaitingTime 0.0028225911904111
scalar DatabaseNetwork.table[1] table.utilization 0.99985158084751
par DatabaseNetwork.table[2] typename "\"progetto.Table\""
par DatabaseNetwork.table[2] tableId 2
scalar DatabaseNetwork.table[2] table.totalServed 4914
scalar DatabaseNetwork.table[2] table.totalReads 1485
scalar DatabaseNetwork.table[2] table.totalWrites 3429
scalar DatabaseNetwork.table[2] table.throughput 0.4914
scalar DatabaseNetwork.table[2] table.maxQueueLength 2
scalar DatabaseNetwork.table[2] table.avgQueueLength 1.001628001628
scalar DatabaseNetwork.table[2] table.avgWaitingTime 0.0024041933554854
scalar DatabaseNetwork.table[2] table.utilization 0.99997821675699
par DatabaseNetwork.table[3] typename "\"progetto.Table\""
par DatabaseNetwork.table[3] tableId 3
scalar DatabaseNetwork.table[3] table.totalServed 5017
scalar DatabaseNetwork.table[3] table.totalReads 1507
scalar DatabaseNetwork.table[3] table.totalWrites 3510
scalar DatabaseNetwork.table[3] table.throughput 0.5017
scalar DatabaseNetwork.table[3] table.maxQueueLength 2
scalar DatabaseNetwork.table[3] table.avgQueueLength 1.0005979669125
scalar DatabaseNetwork.table[3] table.avgWaitingTime 0.0021557263879114
scalar DatabaseNetwork.table[3] table.utilization 0.99975474167976
par DatabaseNetwork.table[4] typename "\"progetto.Table\""
par DatabaseNetwork.table[4] tableId 4
scalar DatabaseNetwork.table[4] table.totalServed 5012
scalar DatabaseNetwork.table[4] table.totalReads 1514
scalar DatabaseNetwork.table[4] table.totalWrites 3498
scalar DatabaseNetwork.table[4] table.throughput 0.5012
scalar DatabaseNetwork.table[4] table.maxQueueLength 2
scalar DatabaseNetwork.table[4] table.avgQueueLength 1.0015961691939
scalar DatabaseNetwork.table[4] table.avgWaitingTime 0.0025044393197023
scalar DatabaseNetwork.table[4] table.utilization 0.99980503188064
par DatabaseNetwork.table[5] typename "\"progetto.Table\""
par DatabaseNetwork.table[5] tableId 5
scalar DatabaseNetwork.table[5] table.totalServed 4881
scalar DatabaseNetwork.table[5] table.totalReads 1472
scalar DatabaseNetwork.table[5] table.totalWrites 3409
scalar DatabaseNetwork.table[5] table.throughput 0.4881
scalar DatabaseNetwork.table[5] table.maxQueueLength 2
scalar DatabaseNetwork.table[5] table.avgQueueLength 1.0008195042
scalar DatabaseNetwork.table[5] table.avgWaitingTime 0.0023628236983942
scalar DatabaseNetwork.table[5] table.utilization 0.99968871734961
par DatabaseNetwork.table[6] typename "\"progetto.Table\""
par DatabaseNetwork.table[6] tableId 6
scalar DatabaseNetwork.table[6] table.totalServed 5026
scalar DatabaseNetwork.table[6] table.totalReads 1511
scalar DatabaseNetwork.table[6] table.totalWrites 3515
scalar DatabaseNetwork.table[6] table.throughput 0.5026
scalar DatabaseNetwork.table[6] table.maxQueueLength 2
scalar DatabaseNetwork.table[6] table.avgQueueLength 1.0009948269001
scalar DatabaseNetwork.table[6] table.avgWaitingTime 0.0023779182737324
scalar DatabaseNetwork.table[6] table.utilization 0.99962926854238
par DatabaseNetwork.table[7] typename "\"progetto.Table\""
par DatabaseNetwork.table[7] tableId 7
scalar DatabaseNetwork.table[7] table.totalServed 4942
scalar DatabaseNetwork.table[7] table.totalReads 1509
scalar DatabaseNetwork.table[7] table.totalWrites 3433
scalar DatabaseNetwork.table[7] table.throughput 0.4942
scalar DatabaseNetwork.table[7] table.maxQueueLength 2
scalar DatabaseNetwork.table[7] table.avgQueueLength 1.0006070416835
scalar DatabaseNetwork.table[7] table.avgWaitingTime 0.002549756412558
scalar DatabaseNetwork.table[7] table.utilization 0.9997704080718
par DatabaseNetwork.table[8] typename "\"progetto.Table\""
par DatabaseNetwork.table[8] tableId 8
scalar DatabaseNetwork.table[8] table.totalServed 5038
scalar DatabaseNetwork.table[8] table.totalReads 1517
scalar DatabaseNetwork.table[8] table.totalWrites 3521
scalar DatabaseNetwork.table[8] table.throughput 0.5038
scalar DatabaseNetwork.table[8] table.maxQueueLength 2
scalar DatabaseNetwork.table[8] table.avgQueueLength 1.0007939658595
scalar DatabaseNetwork.table[8] table.avgWaitingTime 0.0023019418170064
scalar DatabaseNetwork.table[8] table.utilization 0.9995176202715
par DatabaseNetwork.table[9] typename "\"progetto.Table\""
par DatabaseNetwork.table[9] tableId 9
scalar DatabaseNetwork.table[9] table.totalServed 4994
scalar DatabaseNetwork.table[9] table.totalReads 1481
scalar DatabaseNetwork.table[9] table.totalWrites 3513
scalar DatabaseNetwork.table[9] table.throughput 0.4994
scalar DatabaseNetwork.table[9] table.maxQueueLength 2
scalar DatabaseNetwork.table[9] table.avgQueueLength 1.000600720865
scalar DatabaseNetwork.table[9] table.avgWaitingTime 0.0022045423326113
scalar DatabaseNetwork.table[9] table.utilization 0.99990022832887
par DatabaseNetwork.table[10] typename "\"progetto.Table\""
par DatabaseNetwork.table[10] tableId 10
scalar DatabaseNetwork.table[10] table.totalServed 4936
scalar DatabaseNetwork.table[10] table.totalReads 1495
scalar DatabaseNetwork.table[10] table.totalWrites 3441
scalar DatabaseNetwork.table[10] table.throughput 0.4936
scalar DatabaseNetwork.table[10] table.maxQueueLength 2
scalar DatabaseNetwork.table[10] table.avgQueueLength 1.0008103727715
scalar DatabaseNetwork.table[10] table.avgWaitingTime 0.0023904509181584
scalar DatabaseNetwork.table[10] table.utilization 0.99991199647482
par DatabaseNetwork.table[11] typename "\"progetto.Table\""
par DatabaseNetwork.table[11] tableId 11
scalar DatabaseNetwork.table[11] table.totalServed 5114
scalar DatabaseNetwork.table[11] table.totalReads 1505
scalar DatabaseNetwork.table[11] table.totalWrites 3609
scalar DatabaseNetwork.table[11] table.throughput 0.5114
scalar DatabaseNetwork.table[11] table.maxQueueLength 2
scalar DatabaseNetwork.table[11] table.avgQueueLength 1.0021509581541
scalar DatabaseNetwork.table[11] table.avgWaitingTime 0.0026347011123146
scalar DatabaseNetwork.table[11] table.utilization 0.99982112502776
par DatabaseNetwork.table[12] typename "\"progetto.Table\""
par DatabaseNetwork.table[12] tableId 12
scalar DatabaseNetwork.table[12] table.totalServed 4980
scalar DatabaseNetwork.table[12] table.totalReads 1491
scalar DatabaseNetwork.table[12] table.totalWrites 3489
scalar DatabaseNetwork.table[12] table.throughput 0.498
scalar DatabaseNetwork.table[12] table.maxQueueLength 2
scalar DatabaseNetwork.table[12] table.avgQueueLength 1.0016064257028
scalar DatabaseNetwork.table[12] table.avgWaitingTime 0.0023962951868564
scalar DatabaseNetwork.table[12] table.utilization 0.99983937358882
par DatabaseNetwork.table[13] typename "\"progetto.Table\""
par DatabaseNetwork.table[13] tableId 13
scalar DatabaseNetwork.table[13] table.totalServed 5104
scalar DatabaseNetwork.table[13] table.totalReads 1539
scalar DatabaseNetwork.table[13] table.totalWrites 3565
scalar DatabaseNetwork.table[13] table.throughput 0.5104
scalar DatabaseNetwork.table[13] table.maxQueueLength 2
scalar DatabaseNetwork.table[13] table.avgQueueLength 1.0009796238245
scalar DatabaseNetwork.table[13] table.avgWaitingTime 0.0025522957170635
scalar DatabaseNetwork.table[13] table.utilization 0.99981445889165
par DatabaseNetwork.table[14] typename "\"progetto.Table\""
par DatabaseNetwork.table[14] tableId 14
scalar DatabaseNetwork.table[14] table.totalServed 4945
scalar DatabaseNetwork.table[14] table.totalReads 1458
scalar DatabaseNetwork.table[14] table.totalWrites 3487
scalar DatabaseNetwork.table[14] table.throughput 0.4945
scalar DatabaseNetwork.table[14] table.maxQueueLength 2
scalar DatabaseNetwork.table[14] table.avgQueueLength 1.0014155712841
scalar DatabaseNetwork.table[14] table.avgWaitingTime 0.0022953237487243
scalar DatabaseNetwork.table[14] table.utilization 0.99996487011293
par DatabaseNetwork.table[15] typename "\"progetto.Table\""
par DatabaseNetwork.table[15] tableId 15
scalar DatabaseNetwork.table[15] table.totalServed 5023
scalar DatabaseNetwork.table[15] table.totalReads 1461
scalar DatabaseNetwork.table[15] table.totalWrites 3562
scalar DatabaseNetwork.table[15] table.throughput 0.5023
scalar DatabaseNetwork.table[15] table.maxQueueLength 2
scalar DatabaseNetwork.table[15] table.avgQueueLength 1.0011945052757
scalar DatabaseNetwork.table[15] table.avgWaitingTime 0.0026068873701147
scalar DatabaseNetwork.table[15] table.utilization 0.99948592535498
par DatabaseNetwork.table[16] typename "\"progetto.Table\""
par DatabaseNetwork.table[16] tableId 16
scalar DatabaseNetwork.table[16] table.totalServed 4945
scalar DatabaseNetwork.table[16] table.totalReads 1499
scalar DatabaseNetwork.table[16] table.totalWrites 3446
scalar DatabaseNetwork.table[16] table.throughput 0.4945
scalar DatabaseNetwork.table[16] table.maxQueueLength 2
scalar DatabaseNetwork.table[16] table.avgQueueLength 1.0010111223458
scalar DatabaseNetwork.table[16] table.avgWaitingTime 0.0024177934197595
scalar DatabaseNetwork.table[16] table.utilization 0.99986455110111
par DatabaseNetwork.table[17] typename "\"progetto.Table\""
par DatabaseNetwork.table[17] tableId 17
scalar DatabaseNetwork.table[17] table.totalServed 4913
scalar DatabaseNetwork.table[17] table.totalReads 1511
scalar DatabaseNetwork.table[17] table.totalWrites 3402
scalar DatabaseNetwork.table[17] table.throughput 0.4913
scalar DatabaseNetwork.table[17] table.maxQueueLength 3
scalar DatabaseNetwork.table[17] table.avgQueueLength 1.0016283329941
scalar DatabaseNetwork.table[17] table.avgWaitingTime 0.0023258137084292
scalar DatabaseNetwork.table[17] table.utilization 0.99972663606431
par DatabaseNetwork.table[18] typename "\"progetto.Table\""
par DatabaseNetwork.table[18] tableId 18
scalar DatabaseNetwork.table[18] table.totalServed 4966
scalar DatabaseNetwork.table[18] table.totalReads 1465
scalar DatabaseNetwork.table[18] table.totalWrites 3501
scalar DatabaseNetwork.table[18] table.throughput 0.4966
scalar DatabaseNetwork.table[18] table.maxQueueLength 2
scalar DatabaseNetwork.table[18] table.avgQueueLength 1.0004027386226
scalar DatabaseNetwork.table[18] table.avgWaitingTime 0.0019754505005267
scalar DatabaseNetwork.table[18] table.utilization 0.99987629568389
par DatabaseNetwork.table[19] typename "\"progetto.Table\""
par DatabaseNetwork.table[19] tableId 19
scalar DatabaseNetwork.table[19] table.totalServed 4976
scalar DatabaseNetwork.table[19] table.totalReads 1483
scalar DatabaseNetwork.table[19] table.totalWrites 3493
scalar DatabaseNetwork.table[19] table.throughput 0.4976
scalar DatabaseNetwork.table[19] table.maxQueueLength 2
scalar DatabaseNetwork.table[19] table.avgQueueLength 1.0004019292605
scalar DatabaseNetwork.table[19] table.avgWaitingTime 0.0020707821965826
scalar DatabaseNetwork.table[19] table.utilization 0.99997504567456
par DatabaseNetwork typename "\"progetto.DatabaseNetwork\""
par DatabaseNetwork numUsers 200
par DatabaseNetwork numTables 20

